32
Lattice="9.86 0 0 4.93 8.53901048131456 0 0 0 30 " PBC="1 1 1" Properties=species:S:1:pos:R:3:force:R:3 Energy="-256.70392577"
C     2.934878300000000e-02   1.535860580974720e-02   3.631097700000000e+00 -1.58361584e+00   4.31593310e-01  -4.40512800e-01
C     1.239720971000000e+00   7.064673469533680e-01   3.627347400000000e+00 -5.92112310e-01   8.45120580e-01   1.70977700e-01
C     2.429959285500000e+00   3.919106944953200e-02   3.533872800000000e+00  3.06408033e+00  -6.28140040e-01  -2.73953350e-01
C     3.675907635300000e+00   7.861430605500471e-01   3.520676400000000e+00 -2.91836690e-01  -1.14396436e+00   5.29614010e-01
C     9.813760248199998e+00   8.535634155256208e+00   3.537987900000000e+00 -1.58637940e-01   2.51034646e+00  -6.60542900e-01
C     6.090795516399999e+00   7.143785693828784e-01   3.497457300000000e+00  3.36672924e+00  -2.76459770e-01   7.02414370e-01
C     1.231884055660000e+01   8.530808760433960e+00   3.553923300000000e+00  5.69852500e-02   2.37760935e+00  -2.62608530e-01
C     8.676837467999999e+00   7.488934205232480e-01   3.604738500000000e+00 -3.21849858e+00  -1.08171559e+00  -1.36683940e-01
C     1.230616592100000e+00   2.111978822879526e+00   3.707542500000000e+00  3.59669740e-01   1.96784260e+00   7.05807600e-02
C     2.428007252000000e+00   2.913392366651166e+00   3.692403000000000e+00  1.76421963e+00  -1.41751185e+00  -3.35688290e-01
C     3.721671790000000e+00   2.221454658370147e+00   3.607034100000000e+00 -2.23182064e+00  -1.94366749e+00   1.89027290e-01
C     4.956394529800000e+00   2.854998855824315e+00   3.618540900000000e+00 -6.40966940e-01   1.26585839e+00  -8.75574750e-01
C     6.168169697199999e+00   2.129911342618259e+00   3.534177300000000e+00 -4.56237410e-01   1.17999457e+00   3.27890090e-01
C     7.379367413700000e+00   2.915529766364415e+00   3.573312300000000e+00  2.43964760e-01  -2.19699867e+00  -8.18102870e-01
C     8.591545608600001e+00   2.164840335766909e+00   3.591855000000000e+00  1.64530050e+00   2.45409900e-02   8.38041110e-01
C     9.865889772399999e+00   2.824577264747639e+00   3.732178500000000e+00 -1.32183883e+00   1.08117800e+00  -8.53260640e-01
C     1.233458885000000e+01   4.328415360960891e+00   3.664069500000000e+00 -1.02393871e+00  -5.89021780e-01   3.09921000e-02
C     3.713879481300000e+00   5.013622194231051e+00   3.588081300000000e+00 -1.39283892e+00   5.30876820e-01  -5.95737000e-03
C     4.890385625900000e+00   4.287350661831838e+00   3.528005100000000e+00  2.13827246e+00  -5.09742030e-01   7.04273080e-01
C     6.113669927600000e+00   4.987345524231470e+00   3.500128500000000e+00  1.27687157e+00   1.96338153e+00  -8.89401340e-01
C     7.386987221699999e+00   4.322472295056916e+00   3.456459600000000e+00 -1.29142085e+00  -2.90837580e-01   1.17620731e+00
C     8.605276348800000e+00   5.018961381313880e+00   3.549747000000000e+00  1.44451133e+00  -4.17982840e-01  -4.17893750e-01
C     9.830207122600001e+00   4.254915315913663e+00   3.671769900000000e+00  1.55032719e+00   1.34737245e+00  -9.98919700e-02
C     1.110411976350000e+01   5.013587525848502e+00   3.649721700000000e+00 -1.99153450e+00   4.76929260e-01   2.21401310e-01
C     1.354656540790000e+01   6.437290765871565e+00   3.575131500000000e+00 -6.52338000e-02  -4.13266210e-01  -2.36880690e-01
C     4.898915659800000e+00   7.150390618435065e+00   3.532310700000000e+00  1.36716615e+00  -3.16588440e-01   1.31944080e-01
C     6.142769055400001e+00   6.445903126451588e+00   3.446941800000000e+00  7.25996050e-01  -1.04209519e+00   5.73644230e-01
C     7.430171507399999e+00   7.149035648252097e+00   3.458387100000000e+00 -1.73078932e+00  -1.11188340e-01  -9.22292900e-02
C     8.671591159199998e+00   6.444721498181367e+00   3.459064800000000e+00 -2.13195452e+00  -1.00334091e+00   4.10433600e-01
C     9.866677142699999e+00   7.146481374047216e+00   3.512856300000000e+00 -5.15973270e-01  -8.80294000e-02   2.96985840e-01
C     1.107047374600000e+01   6.467326137504232e+00   3.605485800000000e+00  9.97623380e-01  -2.38285389e+00  -4.00491270e-01
C     1.230521650160000e+01   7.140289310597643e+00   3.560594700000000e+00  6.37531490e-01  -1.49239960e-01   4.25246860e-01
