32
Lattice="9.86 0 0 4.93 8.53901048131456 0 0 0 30 " PBC="1 1 1" Properties=species:S:1:pos:R:3:force:R:3 Energy="-256.69388026"
C     5.002117716200000e+00   7.401391415890472e+00  -2.816238000000020e-01 -4.43663090e-01   3.48715620e-01   7.96892980e-01
C     6.226974047000000e+00   8.157007599364624e+00  -2.420909999999985e-01 -1.77188500e-01  -1.52672145e+00   2.59603890e-01
C     7.458936430500000e+00   7.447481493467215e+00  -6.360809999999972e-02 -6.12835520e-01  -2.21608340e-01  -1.40011550e-01
C     8.692062589799999e+00   8.142466859978651e+00  -3.453810000000246e-02 -2.17305130e-01  -8.97649500e-02  -1.28744864e+00
C     9.904466282900000e+00   7.427218592378384e+00  -1.820214000000000e-01  5.03426970e-01   4.59307840e-01   4.75764010e-01
C     1.114044148920000e+01   8.123078353562972e+00  -1.617758999999985e-01  8.51144470e-01   1.00736805e+00  -5.88559860e-01
C     1.239418554940000e+01   7.388270372386904e+00  -2.267064000000012e-01 -7.76458430e-01   1.67210744e+00   2.31247770e-01
C     1.362421295720000e+01   8.119981596022296e+00  -2.545700999999987e-01  2.94737620e-01   5.19263630e-01  -3.81020730e-01
C     1.296693184900000e+00   1.018370331124546e+00  -3.685670999999999e-01 -1.49034872e+00   3.80221520e-01   3.08516630e-01
C     2.504630643100000e+00   1.678556412056524e+00  -3.789584999999995e-01  1.48187414e+00   2.83675117e+00   7.23947900e-02
C     3.748290339000000e+00   1.003856831182005e+00  -2.144691000000023e-01 -4.15305510e-01   7.94070700e-01  -3.00629270e-01
C     4.945189625799999e+00   1.756178835193182e+00  -2.744396999999985e-01  2.52842896e+00  -5.45437590e-01   9.01977120e-01
C     6.226436726299999e+00   1.058547058553785e+00  -1.807262999999999e-01 -1.59778455e+00  -1.98339049e+00  -1.48674700e-02
C     7.444447653499999e+00   1.748072667154414e+00  -1.636827000000025e-01  1.02354502e+00   8.41129900e-02   1.91550280e-01
C     8.711723774899999e+00   1.031592988852826e+00  -2.621912999999978e-01 -1.02938996e+00   3.16813200e-02   1.32086060e-01
C     9.925211525699998e+00   1.779006428079681e+00  -3.489836999999980e-01 -2.03045490e-01  -1.04600086e+00  -6.05103690e-01
C     2.534982138800000e+00   3.162434485882672e+00  -4.562987999999990e-01 -4.61471720e-01  -1.28295218e+00   7.79156910e-01
C     3.756837825100000e+00   3.849828842857598e+00  -2.956692000000025e-01  1.34429970e-01   4.40302930e-01  -1.45137250e-01
C     5.017605064700000e+00   3.177686610231733e+00  -2.133687000000002e-01 -2.10656185e+00  -7.76460670e-01   3.25950070e-01
C     6.206288457199999e+00   3.865853064534261e+00   5.222160000000000e-02  8.30043240e-01   1.08695120e+00  -8.98270310e-01
C     7.427866584499999e+00   3.171507782248405e+00  -2.480609999999928e-02  1.78307816e+00  -5.18241170e-01  -7.71708190e-01
C     8.690177900100000e+00   3.871903380409865e+00  -2.075616000000018e-01 -1.40154115e+00   1.38777339e+00   6.81003600e-02
C     9.901890456499999e+00   3.208586898235919e+00  -4.456623000000022e-01  9.81771540e-01  -1.42079120e+00   1.20248355e+00
C     1.116874599960000e+01   3.907377418597453e+00  -4.153289999999998e-01 -1.45497805e+00  -1.44855717e+00  -6.05378200e-01
C     3.721942890700000e+00   5.266082650137910e+00  -2.288217000000010e-01  8.66737780e-01   2.18756750e-01   1.66938260e-01
C     4.968887840000000e+00   5.973466489086096e+00  -1.370384999999992e-01  8.00005500e-01   7.87842650e-01  -1.05832800e-02
C     6.235017982900001e+00   5.309043948884677e+00   4.063020000000001e-02 -1.73399230e+00  -9.73774650e-01  -4.87519100e-01
C     7.447431782499999e+00   6.012402583682695e+00  -8.623200000002385e-03  2.05250380e-01   7.95754100e-01  -2.77045680e-01
C     8.672182364799999e+00   5.327844715209016e+00  -1.906940999999982e-01 -8.66063070e-01  -1.80260007e+00   3.15560300e-01
C     9.870475609100000e+00   6.021183760499908e+00  -3.190022999999975e-01  4.25769560e-01   1.46139110e-01   8.32890820e-01
C     1.106247344060000e+01   5.290394493826042e+00  -3.233408999999980e-01  3.75160422e+00   1.17817533e+00  -3.36939320e-01
C     1.237032227880000e+01   5.987719293038683e+00  -2.542118999999978e-01 -1.47391448e+00  -5.38994950e-01  -2.10891240e-01
