32
Lattice="9.86 0 0 4.93 8.53901048131456 0 0 0 30 " PBC="1 1 1" Properties=species:S:1:pos:R:3:force:R:3 Energy="-257.2558319"
C     4.962712719200000e+00   7.372679334711892e+00  -2.183247000000001e-01  1.33869849e+00  -1.67397720e-01  -1.02013370e-01
C     6.225897877300000e+00   8.077741587490776e+00  -2.295237000000014e-01 -5.19952770e-01  -2.36862340e-01   2.41973150e-01
C     7.472007684599999e+00   7.390148100791456e+00  -1.288529999999994e-01 -1.61465638e+00  -9.16801120e-01  -2.99579620e-01
C     8.671106836000000e+00   8.114476154405422e+00  -1.612824000000010e-01  1.38199016e+00  -1.04241966e+00  -4.35225500e-02
C     9.922065741999999e+00   7.383678263330970e+00  -1.670873999999998e-01 -2.57998440e-01  -9.32124700e-02  -1.96631240e-01
C     1.114089711980000e+01   8.082334977398283e+00  -2.057298000000003e-01  1.03005510e+00   1.04539677e+00   1.74386400e-01
C     1.240759924130000e+01   7.392100887098127e+00  -2.165247000000008e-01 -2.09730773e+00  -3.28954780e-01  -5.23445020e-01
C     1.360458559190000e+01   8.088998565006559e+00  -3.065340000000027e-01  7.87858640e-01  -1.51550460e-01   5.69715120e-01
C     1.286431242000000e+00   9.452419892035120e-01  -2.986749000000017e-01 -6.10205290e-01   1.02709386e+00  -2.24502780e-01
C     2.515536986300000e+00   1.679350710811374e+00  -2.752454999999969e-01 -2.43763410e-01   5.80909270e-01   1.14369070e-01
C     3.768623384500000e+00   9.889186008581879e-01  -2.191487999999993e-01 -1.59136928e+00  -4.09184000e-01   1.64516140e-01
C     4.976280769400000e+00   1.670155989716614e+00  -1.777770000000025e-01  1.62496321e+00   1.74240249e+00   2.40365470e-01
C     6.229015855800000e+00   9.889072439742496e-01  -1.768844999999999e-01 -9.44894170e-01  -1.27536946e+00  -2.08790300e-02
C     7.455510474900000e+00   1.688341264165556e+00  -1.747022999999999e-01 -3.55687740e-01  -9.39681400e-01  -2.82926530e-01
C     8.671129168899999e+00   9.535162049685272e-01  -3.139256999999986e-01 -3.64540620e-01   7.68220210e-01   3.26303140e-01
C     9.869367246500000e+00   1.657762042955419e+00  -3.477804000000013e-01  2.45618405e+00   4.42428160e-01   2.46015190e-01
C     2.486335758200000e+00   3.121214291372778e+00  -2.743334999999973e-01  1.58064443e+00  -8.80085140e-01  -3.43174510e-01
C     3.747790732800000e+00   3.834185631828552e+00  -1.838106000000010e-01 -5.02422030e-01  -6.27758540e-01  -1.31516950e-01
C     5.010594801899999e+00   3.121424265640481e+00  -1.157408999999987e-01 -2.42852567e+00  -1.06916393e+00  -3.86643720e-01
C     6.211234972700000e+00   3.806379454271795e+00  -8.037360000000149e-02  1.25457742e+00   4.96923310e-01   3.45122420e-01
C     7.445381099699999e+00   3.075867449268213e+00  -9.391919999999843e-02  1.08705858e+00   1.54576607e+00  -5.59332260e-01
C     8.718779541600000e+00   3.781987343885151e+00  -1.964502000000010e-01 -2.87766921e+00   2.14212514e+00   2.72103980e-01
C     9.909062817699999e+00   3.099311131760844e+00  -3.202325999999971e-01  5.57961300e-02  -1.35313747e+00  -2.32735480e-01
C     1.112033029370000e+01   3.811137049350831e+00  -3.813317999999981e-01  1.00186907e+00   1.66466600e-01   7.32556420e-01
C     3.721664690800000e+00   5.254465070209555e+00  -2.002728000000005e-01  1.75166780e+00  -3.11864390e-01   2.84235100e-01
C     4.974818531400000e+00   5.950136546213059e+00  -1.145861999999980e-01 -3.77536620e-01   1.64355600e-01  -3.54764120e-01
C     6.209156336800000e+00   5.236117639951599e+00  -5.528280000000052e-02 -9.00808640e-01  -2.17628570e-01  -2.69741940e-01
C     7.410426955999999e+00   5.938750458858817e+00  -9.783810000000059e-02  2.29493280e+00   1.13435900e+00   3.55437900e-02
C     8.662112001699999e+00   5.253182425445354e+00  -1.679066999999996e-01  1.38507971e+00  -1.28638700e+00   2.34588000e-03
C     9.949832980999998e+00   5.953835474772785e+00  -2.159751000000014e-01 -2.30404873e+00  -9.50714700e-02  -3.05767800e-02
C     1.115064787100000e+01   5.218997777840246e+00  -3.122498999999976e-01  4.20663030e-01   1.65248501e+00   1.97867300e-01
C     1.239661298280000e+01   5.986896132428411e+00  -2.592044999999992e-01 -1.46065189e+00  -1.50640154e+00   5.45673400e-02
