32
Lattice="9.86 0 0 4.93 8.53901048131456 0 0 0 30 " PBC="1 1 1" Properties=species:S:1:pos:R:3:force:R:3 Energy="-257.08575082"
C     5.009102737399999e+00   7.292690154040491e+00  -1.757756999999991e-01 -2.00954507e+00   1.83062670e-01  -2.89262600e-01
C     6.190306580400000e+00   8.014233977897348e+00  -2.421459000000006e-01  1.67468376e+00  -3.11554500e-02   7.60870910e-01
C     7.442433945699999e+00   7.324026870870310e+00  -2.547288000000023e-01  9.54664200e-02  -1.10984063e+00   1.26776290e-01
C     8.698587444799999e+00   7.989468456582413e+00  -1.647122999999979e-01  7.81542800e-02   9.18189410e-01  -9.36601050e-01
C     9.943011487900000e+00   7.256185628068176e+00  -2.840747999999991e-01 -1.20602968e+00   1.09253937e+00   1.05850824e+00
C     1.115870344170000e+01   7.989909838034124e+00  -2.488583999999996e-01  2.66437550e-01  -2.87974740e-01   3.35163820e-01
C     1.239916302530000e+01   7.310806433284754e+00  -1.859736000000005e-01  5.38082040e-01  -6.71779570e-01  -3.60499860e-01
C     1.363754678310000e+01   8.034674575794266e+00  -1.540382999999999e-01 -9.38462030e-01  -9.29534570e-01  -1.64130890e-01
C     1.245561985700000e+00   8.825563447588889e-01  -1.168656000000006e-01  1.32545982e+00   3.38614610e-01  -3.32560350e-01
C     2.488485435400000e+00   1.603784481398299e+00  -1.223733000000031e-01  1.51905604e+00  -1.15106754e+00   8.25964670e-01
C     3.772085526300000e+00   9.071222240088007e-01  -9.786809999999946e-02 -1.07346046e+00  -1.49650734e+00  -4.06234130e-01
C     5.011546784900000e+00   1.586251758130239e+00  -1.032149999999987e-01 -8.69202050e-01   5.70858250e-01  -1.36927440e-01
C     6.223625788200000e+00   8.580650110704672e-01  -1.961607000000001e-01 -6.83319400e-02   1.04454238e+00  -3.53577750e-01
C     7.439678026400000e+00   1.593886060449883e+00  -2.727539999999991e-01  1.39826220e-01   2.17268890e-01   7.41273980e-01
C     8.654633487500000e+00   9.122476796593160e-01  -1.635644999999997e-01  1.33663297e+00  -9.65944910e-01  -1.51277820e-01
C     9.905349245900000e+00   1.590132567613190e+00  -8.208719999999659e-02 -1.06733741e+00   1.25104499e+00  -6.08323430e-01
C     2.546613290600000e+00   2.996082436337391e+00  -1.160790000000134e-02 -1.09513304e+00   1.44920019e+00  -3.06786020e-01
C     3.786018692300000e+00   3.737795146777692e+00  -7.344330000000099e-02 -1.12795493e+00  -9.74755120e-01  -1.07673620e-01
C     4.997631514800000e+00   3.022929597627139e+00  -1.042062000000001e-01  1.00381398e+00  -7.10016640e-01  -4.56254350e-01
C     6.241002066199999e+00   3.706266643772492e+00  -2.477960999999986e-01 -9.77038350e-01   1.00130029e+00   3.64781930e-01
C     7.483841903100000e+00   3.019427322478767e+00  -2.758886999999994e-01 -1.84814846e+00  -4.43241930e-01   7.83410300e-02
C     8.666470220299999e+00   3.746018726210561e+00  -2.079279000000014e-01  1.25435193e+00  -3.73871590e-01   1.63790060e-01
C     9.901380891699999e+00   3.019229046655421e+00  -1.147722000000009e-01  1.07330190e+00   6.17719900e-01   5.86902310e-01
C     1.115926989870000e+01   3.722054164078650e+00   7.157400000000000e-03  2.07801600e-02   9.23564370e-01  -2.79773330e-01
C     3.730768231599999e+00   5.138535023647625e+00  -1.963371000000009e-01  8.49806750e-01   7.86699630e-01   6.73313260e-01
C     4.943443370500000e+00   5.877424224882610e+00  -2.057805000000030e-01  1.13724032e+00  -1.00323409e+00  -1.95945690e-01
C     6.168132574300000e+00   5.134356288089028e+00  -2.420441999999987e-01  1.51599191e+00   9.39497540e-01  -3.17055440e-01
C     7.421977305100000e+00   5.880261738065115e+00  -2.825148000000013e-01 -2.69261290e-01  -1.08937140e-01   3.80283140e-01
C     8.652368793400001e+00   5.158480444326810e+00  -1.999647000000024e-01  8.53710060e-01   5.79002770e-01  -2.80197520e-01
C     9.928201324200000e+00   5.852972170642397e+00  -1.785159000000007e-01 -4.87912040e-01   1.33571300e-02   3.23394660e-01
C     1.118394780250000e+01   5.203174393690072e+00   1.389300000000000e-03 -1.81859901e+00  -3.00233764e+00  -1.29326808e+00
C     1.238937968680000e+01   5.865147433345199e+00  -1.678604999999997e-01  1.73619660e-01   1.33373649e+00   5.56985070e-01
