32
Lattice="9.86 0 0 4.93 8.53901048131456 0 0 0 30 " PBC="1 1 1" Properties=species:S:1:pos:R:3:force:R:3 Energy="-249.42013783"
C     9.759257717799999e+00   1.131505986506896e-01  -2.729336999999994e-01  6.79721522e+00  -7.21155747e+00  -7.56912210e-01
C     1.207976257300000e+00   6.997704572042184e-01  -4.116752999999989e-01 -4.72217350e-01   5.39777390e-01   3.02597345e+00
C     7.338384619499999e+00   8.423275208267119e+00  -2.627195999999969e-01  2.02504805e+00   5.35775457e+00  -5.79052150e-01
C     3.762770932200000e+00   7.221058615266497e-01  -1.117610999999989e-01 -3.52834437e+00  -3.97676001e+00  -1.06193336e+00
C     4.982697509499999e+00   9.458875383958000e-02  -1.225205999999979e-01 -1.39569480e-01  -5.03825276e+00   5.55047560e-01
C     6.204525883600000e+00   7.277948918688448e-01  -2.246115000000017e-01 -1.26751801e+00   3.72027837e+00   9.99458420e-01
C     7.413013726999999e+00   7.301810329573760e-02  -3.796739999999943e-02 -2.44335252e+00  -2.56519418e+00  -4.06521800e-01
C     8.598906394400000e+00   7.096568381478575e-01  -2.057507999999970e-01 -1.04704414e+00   1.36551422e+00  -1.74817120e-01
C     1.106995515930000e+01   2.110750742392292e+00  -2.210249999999903e-02  7.22071960e-01  -1.42107944e+00  -3.51371746e+00
C     2.522421534100000e+00   2.713603003697987e+00  -7.890120000000067e-02 -3.85181003e+00   4.96535258e+00   3.64458929e+00
C     3.714244350600000e+00   2.051224361045059e+00  -2.236380000000082e-02  1.69954796e+00   3.57274273e+00  -1.92597100e-01
C     4.998378360499999e+00   2.851513658696903e+00   5.496900000000000e-03 -4.11078230e+00  -1.01070083e+00  -4.69813390e-01
C     6.150307764899999e+00   2.275389354094656e+00  -2.404475999999995e-01  4.16118068e+00  -8.28076246e+00   6.96630400e-02
C     7.449105024500000e+00   2.806976912516577e+00  -2.500542000000010e-01 -4.76746536e+00   3.90001370e-01  -7.97673380e-01
C     8.593550935400000e+00   2.074211889597848e+00  -2.859842999999991e-01  9.02565820e-01   2.26782095e+00   1.52082380e-01
C     9.756879978799999e+00   2.810824163688341e+00  -1.719738000000000e-01  5.79771537e+00  -1.48928174e+00   1.86228044e+00
C     1.231250314020000e+01   4.310839003349278e+00   3.854187000000000e-01  3.01320800e-01  -4.86580808e+00  -2.13351289e+00
C     3.677874853200000e+00   4.922200388598293e+00   3.189921000000000e-01  3.41009558e+00   2.99372483e+00  -2.71085523e+00
C     5.000443537500000e+00   4.192298325113298e+00   8.646300000000001e-03 -2.75812803e+00   5.95253747e+00   9.02219590e-01
C     6.209998824500000e+00   5.007086606389867e+00  -2.524443000000005e-01 -2.55623729e+00  -4.87896050e+00   9.06836080e-01
C     7.338571072100000e+00   4.167529900534801e+00  -3.347289000000018e-01  3.79835597e+00   2.62823626e+00   4.75376160e-01
C     8.607036210899999e+00   4.750731507803081e+00  -2.096625000000003e-01  2.11897125e+00   7.35146183e+00   1.02624374e+00
C     9.878540497500000e+00   4.170232155791301e+00   9.967440000000000e-02 -3.27256799e+00   1.09292254e+00  -1.56378360e+00
C     1.105014784900000e+01   4.946491311710749e+00   3.451188000000000e-01  1.66259757e+00   2.51304940e-01   1.76253050e-01
C     3.755761507499999e+00   6.431905724302458e+00  -3.724380000000238e-02 -2.54008282e+00  -1.67969054e+00   3.04435609e+00
C     4.981557940000000e+00   7.067627284038921e+00  -1.926096000000008e-01 -1.73224671e+00   3.14011182e+00  -9.06772900e-02
C     6.225007026299999e+00   6.364165924944828e+00  -2.106597000000008e-01 -2.94421878e+00   1.03860393e+00  -1.05765173e+00
C     7.370988829400000e+00   7.072370875140772e+00  -3.498285000000010e-01  4.39840859e+00  -9.54292180e-01   8.28570840e-01
C     8.682768750999999e+00   6.377158456340672e+00  -1.950743999999993e-01 -2.43309664e+00  -2.45994850e+00  -2.51515300e-02
C     9.838657537000000e+00   7.105552274404585e+00   4.447410000000000e-02  2.55586177e+00   5.60120340e-01   1.59376700e-01
C     1.112698263850000e+01   6.369102156123107e+00   3.661197000000000e-01 -2.26801021e+00   2.96944051e+00  -2.17480984e+00
C     1.231716815270000e+01   7.220927199895208e+00   1.561125000000000e-01  1.78173543e+00  -4.32541793e+00  -1.18846750e-01
