32
Lattice="9.86 0 0 4.93 8.53901048131456 0 0 0 30 " PBC="1 1 1" Properties=species:S:1:pos:R:3:force:R:3 Energy="-255.11097481"
C     4.987663498499999e+00   8.415091762183506e+00  -4.342548000000015e-01  2.74101979e+00  -9.33247000e-01  -3.64520980e-01
C     1.311474508100000e+00   5.984035222357192e-01  -5.462930999999998e-01  7.28671890e-01  -5.00624350e-01   1.32515548e+00
C     7.470284896099999e+00   8.384999606131148e+00  -5.718125999999977e-01  1.09848698e+00   1.66816052e+00  -7.37733000e-03
C     3.817002361899999e+00   5.923712236722279e-01  -3.884334000000003e-01 -6.39549930e-01  -3.89125950e-01  -8.22450980e-01
C     1.001809489490000e+01   8.413761725911142e+00  -5.245022999999982e-01 -2.87939563e+00   8.26628500e-02   1.50800824e+00
C     6.254669455900000e+00   6.035252207216232e-01  -4.524660000000011e-01  2.26123624e+00  -4.38788890e-01  -3.02794940e-01
C     1.245248615180000e+01   8.443835693871177e+00  -3.312875999999996e-01 -1.39176631e+00  -9.35439140e-01  -1.53357120e-01
C     8.740175297900000e+00   5.739247408927032e-01  -4.507146000000013e-01 -7.93028580e-01   8.23562830e-01   5.38947090e-01
C     1.359149629400000e+00   2.005382170942550e+00  -2.207624999999993e-01  1.45610430e-01  -3.30420350e-01   9.74563990e-01
C     2.584528343000000e+00   2.704011218615908e+00   8.679900000000000e-02 -1.56009960e-01   7.76899790e-01  -2.55205550e-01
C     3.814399568400000e+00   2.011800432779737e+00  -9.626099999999838e-02  1.25547127e+00  -3.21504430e-01  -9.97688140e-01
C     5.092443105599999e+00   2.750187967149023e+00  -2.259465000000027e-01 -1.77201224e+00  -4.20268700e-02   8.97231920e-01
C     6.268054504500000e+00   2.008733988726265e+00  -5.170707000000014e-01  1.20877151e+00   1.55279443e+00   6.71343270e-01
C     7.558171168000000e+00   2.714235488204240e+00  -5.383662000000022e-01 -1.06174483e+00   3.55994330e-01   1.17285797e+00
C     8.778758562499998e+00   1.979313852798682e+00  -4.199112000000014e-01 -5.51649890e-01   1.90854509e+00   1.91950600e-01
C     9.983131088399999e+00   2.690563472571375e+00  -8.689439999999848e-02 -2.20754100e-02   1.15634557e+00  -1.64353166e+00
C     2.593743301800000e+00   4.155171646837411e+00   3.507402000000000e-01 -8.28184940e-01  -6.87207940e-01  -1.19485389e+00
C     3.817390895200000e+00   4.880699772984236e+00   1.874682000000000e-01  9.91129190e-01  -1.89522724e+00  -8.87007400e-02
C     5.094742802700000e+00   4.198516261764625e+00  -2.748149999999683e-02 -1.92691414e+00  -2.79091809e+00  -7.62725550e-01
C     6.278241610000000e+00   4.830515154492227e+00  -3.745872000000006e-01  1.90026200e-01   9.09065690e-01   3.66721400e-02
C     7.527164425999999e+00   4.163836009991257e+00  -4.148363999999987e-01  9.17202320e-01  -1.57148731e+00  -9.58038180e-01
C     8.751008184099998e+00   4.899287917947624e+00  -3.883431000000002e-01  1.24952777e+00  -1.31459968e+00   1.21237319e+00
C     1.001241795060000e+01   4.150087861558038e+00  -4.244400000000326e-02 -2.03775537e+00   5.17027860e-01  -1.52609070e-01
C     1.119424292430000e+01   4.895923035477874e+00   2.614041000000000e-01  6.75889550e-01  -2.44224630e-01  -7.83996420e-01
C     3.794857048400000e+00   6.240764158822794e+00  -1.569149999999908e-02  5.49191350e-01   3.84846392e+00  -9.05951700e-02
C     5.021625824800000e+00   6.998141598598551e+00  -2.878356000000011e-01  1.72661090e-01  -2.18397594e+00  -1.17414004e+00
C     6.224504067700000e+00   6.202282681144150e+00  -5.842418999999985e-01  1.37582764e+00   3.89298625e+00   1.10266368e+00
C     7.512280065800000e+00   6.973817373345222e+00  -7.105092000000006e-01 -1.90223149e+00  -2.66347990e-01   9.25745580e-01
C     8.748436548200001e+00   6.324953507969096e+00  -4.883132999999980e-01 -1.42753950e-01  -1.71036671e+00  -3.73799800e-02
C     9.968359132200000e+00   6.994183425680651e+00  -3.240491999999975e-01  1.43653580e+00   9.75560450e-01   2.54015120e-01
C     1.119071353730000e+01   6.352690861101385e+00   9.877350000000000e-02 -2.85166130e-01  -1.27010721e+00  -1.22126428e+00
C     1.244712645300000e+01   7.038471515875799e+00  -4.586100000000215e-02 -6.07020220e-01  -6.42429860e-01   1.99701740e-01
