72
Lattice="7.395 0 0 3.6975 6.40425786098592 0 0 0 13.6 " PBC="1 1 1" Properties=species:S:1:pos:R:3:force:R:3 Energy="-568.2668148"
C     3.722929556250000e+00   6.100171912972738e+00   2.131863920000000e-01 -1.85602397e+00   2.11094604e+00  -1.52698548e+00
C     1.228535343300000e+00   4.296483389710512e-01   1.359990398400000e+01  2.36572930e-01   1.12118640e+00   1.41131549e+00
C     1.513641507750000e+00   1.037905409655114e+00   3.256089424000000e+00 -2.38177976e+00   2.10827941e+00   1.00507211e+00
C     2.642477756850000e+00   1.925930947931390e+00   3.017904328000000e+00  1.94277988e+00  -5.23340912e+00   1.16696580e+00
C     6.162665808225000e+00   6.145607496743716e+00   2.663176480000000e-01 -2.02599382e+00  -3.36934550e-01  -1.27211790e-01
C     3.608082470100000e+00   5.281929601957008e-01   3.183035120000000e-01  3.14029495e+00  -1.09320422e+00  -1.63624512e+00
C     3.901898465550000e+00   1.168262029032899e+00   3.241887216000000e+00 -9.10116340e-01  -2.79543232e+00   1.78413352e+00
C     5.117863233225000e+00   1.809854862942727e+00   3.606076176000000e+00 -4.64658950e-01  -1.53467983e+00  -2.22488233e+00
C     8.612812926075000e+00   6.224630531074356e+00   4.293052160000000e-01 -5.42511710e-01  -2.66720264e+00  -1.81245839e+00
C     6.159424986450000e+00   4.831799934009048e-01   3.058264640000000e-01  2.57205750e-01  -2.84518221e+00   6.39787480e-01
C     6.344890846949999e+00   1.075230321059294e+00   3.735996840000000e+00  8.18391570e-01   2.19860488e+00  -9.89549800e-01
C     7.584766348800000e+00   1.741937644294848e+00   3.410404136000000e+00  1.93208675e+00   1.39875618e+00  -1.67313740e-01
C     1.226958137700000e+00   1.929485182958534e+00   1.354084584800000e+01 -2.25914184e+00  -1.66818546e+00   4.24647160e-01
C     2.413771778400000e+00   2.631467798912753e+00   1.336444188000000e+01  1.58578101e+00   9.22248300e-02   1.38955694e+00
C     2.680373027625000e+00   3.301675625452004e+00   3.087035440000000e+00  1.16715815e+00   5.54162800e-01   1.82534855e+00
C     3.900039769275000e+00   3.889240538990407e+00   3.592606872000000e+00  4.78105600e-01   3.53333699e+00  -1.60496523e+00
C     3.665015909550000e+00   1.897497067714248e+00   1.348199021600000e+01  3.60948340e-01   1.99208950e-01   3.30443109e+00
C     4.890459144525000e+00   2.568294598317248e+00   3.824239760000000e-01 -4.72137770e-01   9.78586610e-01  -2.23967547e+00
C     5.108832976875000e+00   3.183784637828395e+00   3.439858335999999e+00  1.61615803e+00   2.56584801e+00   1.97381374e+00
C     6.358035237600001e+00   3.965485854559430e+00   3.488736872000000e+00  7.19637100e-01  -5.74771650e+00  -2.02549410e-01
C     6.139321678949999e+00   1.838580200935078e+00   4.979936480000000e-01  2.16429290e-01   2.75644372e+00  -1.76249404e+00
C     7.350114198750000e+00   2.606700356320460e+00   2.754277440000000e-01  6.04377690e-01  -4.18068130e-01   1.96046965e+00
C     7.619895297975000e+00   3.236590049416925e+00   3.284035656000000e+00 -3.72061790e-01  -8.83518430e-01   2.41422600e-01
C     8.887097099624999e+00   3.984219397523765e+00   3.133475224000000e+00 -2.90943381e+00   1.03533632e+00   2.92286180e+00
C     2.474544516975000e+00   4.058807355201199e+00   6.694192000000000e-03 -2.90007524e+00  -2.39631172e+00  -1.08047985e+00
C     3.673279156500000e+00   4.691188688860674e+00   3.800438400000000e-02  2.21933585e+00   2.68986843e+00   1.41778344e+00
C     4.028566865925000e+00   5.432087097914077e+00   3.844291600000000e+00 -4.41653265e+00  -3.37319093e+00  -1.74200656e+00
C     5.266106213325000e+00   6.037108865612425e+00   3.652308832000000e+00 -3.10118111e+00   3.30213738e+00  -1.02419219e+00
C     4.902465888375000e+00   4.048253522503391e+00   3.038422240000000e-01 -8.72956910e-01  -3.58949385e+00  -1.22051040e-01
C     6.075526899674999e+00   4.712847056389672e+00   5.308304400000000e-01  2.91782365e+00   1.74436100e+00  -1.03794040e-01
C     6.394075139849999e+00   5.292748699015378e+00   3.557760679999999e+00  1.55698239e+00   1.71389013e+00  -8.95103650e-01
C     7.586518150350000e+00   5.981286728358943e+00   3.409479880000000e+00  1.76348731e+00   5.22893664e+00   4.22679180e-01
C     7.324803147374999e+00   3.974728415460403e+00   7.208829600000000e-01  2.54117021e+00   8.99413470e-01  -5.72930075e+00
C     8.646390367275000e+00   4.709395161403132e+00   2.004697120000000e-01 -3.27782729e+00   2.70902240e+00   3.48582341e+00
C     8.856633618975000e+00   5.393756077600091e+00   3.586413432000000e+00 -1.50121290e-01  -2.05497804e+00  -1.76228268e+00
C     1.005363668227500e+01   6.118615727311488e+00   3.827117248000000e+00  2.58024423e+00  -2.38843559e+00  -1.04460692e+00
C     7.343978049599999e+00   2.206277079582576e-01   6.538112552000000e+00  3.33925212e+00  -1.86522389e+00   4.41196140e-01
C     1.151732389275000e+00   9.795246433014042e-01   6.434518904000000e+00  1.79053384e+00  -1.94541032e+00   8.56904610e-01
C     1.092508755300000e+00   3.528496314803460e-01   1.027345863200000e+01 -6.08444820e-01   7.04429700e-01   3.62585850e-01
C     2.219830138650000e+00   1.036248628146732e+00   9.803364432000000e+00  3.02753288e+00   6.53753800e-02   1.45027791e+00
C     2.410889577149999e+00   2.641442558614860e-01   6.653785040000000e+00  3.79912260e-01   7.26888900e-02  -8.79970300e-02
C     3.693586676924999e+00   9.254634848316858e-01   6.674561216000000e+00 -3.89692290e-01   8.26541300e-02  -5.65033660e-01
C     3.507004726049999e+00   2.710890330848700e-01   9.836680624000000e+00  1.51815089e+00   2.54157622e+00   6.73846190e-01
C     4.928627216849999e+00   1.067989795207936e+00   1.001252073600000e+01 -7.81018492e+00  -1.64582002e+00  -4.73592290e-01
C     4.965324756449999e+00   1.820092645515144e-01   6.744189680000000e+00 -5.52484360e-01   3.34954288e+00  -1.81678350e-01
C     6.239984045850000e+00   9.041880919227158e-01   6.667544840000000e+00 -6.37232837e+00   4.41951204e+00  -5.83649370e-01
C     5.989655826900000e+00   3.907878146172000e-01   1.037947308000000e+01  3.61870957e+00  -3.45619141e+00   7.15374890e-01
C     7.283218732950000e+00   1.020875591409274e+00   1.059220183200000e+01 -1.00984828e+00   2.05823992e+00  -2.68164341e+00
C     8.570552941424999e+00   2.356112313284130e+00   6.317951536000000e+00 -1.07334261e+00   2.49963202e+00  -3.19618100e-02
C     2.421663981225000e+00   3.029640043055426e+00   6.280426416000000e+00  7.29578300e-02   1.24086123e+00   2.51285789e+00
C     2.279010216075000e+00   2.504384075514321e+00   9.784684696000001e+00  1.30490352e+00  -1.27822233e+00   7.07666590e-01
C     3.550263627300000e+00   3.168927335976402e+00   9.845803368000000e+00  5.37358330e-01   6.17909640e-01   2.05309619e+00
C     3.655139406375000e+00   2.349926952957784e+00   6.517019088000000e+00 -7.53957400e-02  -1.50215131e+00  -2.96655820e-01
C     4.883801795775000e+00   3.038936335679845e+00   6.580786768000000e+00 -1.24452023e+00   2.60130138e+00   4.25751480e-01
C     4.770964744575000e+00   2.408725725222016e+00   1.016151227200000e+01 -7.77449930e-01   3.05021625e+00  -1.31759854e+00
C     5.926968227025000e+00   3.118485415751106e+00   1.040158885600000e+01  4.11353077e+00   3.13049910e+00  -1.05315988e+00
C     6.124343476199999e+00   2.455613282335013e+00   6.501890856000000e+00  1.87088634e+00  -3.42586951e+00   8.97441570e-01
C     7.321970455649999e+00   3.222553517252269e+00   6.379755648000000e+00  7.85113420e-01  -5.39893335e+00   5.67071390e-01
C     7.266049909350000e+00   2.419754561725301e+00   1.035142661600000e+01 -4.42213190e-01   2.61894497e+00   5.67415700e-01
C     8.561258942400000e+00   3.255206778717894e+00   1.009248601600000e+01 -3.95636052e+00  -4.00976879e+00  -2.01128850e-01
C     9.790844190824998e+00   4.474437286057339e+00   6.565104064000000e+00  6.71288370e-01  -1.51545845e+00  -1.53942699e+00
C     3.597336056100000e+00   5.176393452426597e+00   6.569056904000000e+00  1.19866851e+00   8.96039780e-01   1.00075567e+00
C     3.553714319175000e+00   4.566971255110064e+00   1.019094253600000e+01 -1.55624773e+00   1.99349247e+00   5.29556130e-01
C     4.776975067800000e+00   5.382605560197466e+00   1.041121507200000e+01  1.16019550e-01  -3.77271976e+00  -1.82982936e+00
C     4.788711931125000e+00   4.473928916068412e+00   6.693933464000000e+00  4.26964414e+00   4.91589880e-01  -4.54439640e-01
C     6.126758905050000e+00   5.250946314770958e+00   6.792654096000000e+00 -3.13698093e+00  -8.92254280e-01  -1.37370008e+00
C     5.990369999025000e+00   4.667484289030564e+00   1.027135974400000e+01 -2.73780220e-01  -3.48308483e+00   6.96308860e-01
C     7.246148818125000e+00   5.299878495248337e+00   1.008501417600000e+01 -1.23260002e+00   6.78257720e-01  -3.19334690e-01
C     7.332181656525000e+00   4.553574316177888e+00   6.593848072000000e+00  1.17766061e+00   2.25168066e+00   5.17083120e-01
C     8.634526457849999e+00   5.224789276308202e+00   6.629486328000000e+00 -2.51364142e+00  -1.34464104e+00   2.05190590e-01
C     8.511922386449999e+00   4.626334946960127e+00   1.005814329600000e+01 -2.95028342e+00   4.21577430e-01   8.67919680e-01
C     9.607231924050000e+00   5.353219494921698e+00   1.026532977600000e+01  6.37838243e+00  -1.45829360e-01  -6.10388110e-01
