72
Lattice="7.395 0 0 3.6975 6.40425786098592 0 0 0 13.6 " PBC="1 1 1" Properties=species:S:1:pos:R:3:force:R:3 Energy="-559.91643292"
C     3.734934044625000e+00   6.359135828693849e+00   1.328234099200000e+01  8.89760710e-01  -6.27624370e-01   6.43923440e-01
C     1.157494018650000e+00   7.969844017307173e-01   1.328421167200000e+01  3.70952852e+00  -5.23052901e+00   1.18609351e+00
C     1.259123355750000e+00   7.448195440133448e-01   3.405902808000000e+00  1.93545231e+00   9.53799610e-01   7.45203110e-01
C     2.454160532250000e+00   1.616318510626420e+00   3.405042200000000e+00  2.90374899e+00  -8.00430758e+00   3.82297080e-01
C     5.994614433224999e+00   6.361432011306973e+00   1.342745938400000e+01  6.00009276e+00   4.62720870e-01  -9.08132700e-01
C     3.734547951675000e+00   7.515333196557187e-01   1.312565920000000e+01 -1.15163881e+00  -3.12333672e+00   4.01860386e+00
C     3.745301760675000e+00   7.880465554187226e-01   3.513270320000000e+00 -5.53839213e+00  -2.95038763e+00   2.84103910e-01
C     4.869842882850000e+00   1.475605950118701e+00   3.552759008000000e+00  5.78320707e+00   9.52214520e-01   7.92163790e-01
C     8.704697021249999e+00   6.394548364658454e+00   1.332558844800000e+01 -1.55014275e+00  -7.66561540e-01   3.58455820e-01
C     6.330655324049999e+00   7.002640974000672e-01   1.342201068000000e+01 -8.94131904e+00   4.29452910e-01   1.07923953e+00
C     6.152187721800000e+00   8.356524140932968e-01   3.571862112000000e+00  3.11578738e+00  -4.24662237e+00   7.34651320e-01
C     7.525086628200000e+00   1.508152900903849e+00   3.430835280000000e+00 -7.52360526e+00  -2.35704438e+00   4.11118550e-01
C     1.258535749050000e+00   2.173750110081951e+00   1.334348428000000e+01 -1.13581718e+00  -1.90951090e+00  -1.25537033e+00
C     2.438303248875000e+00   2.840410233937076e+00   1.296427357600000e+01  3.90159190e-01   3.81191150e-01   3.21881033e+00
C     2.603154289725000e+00   2.931769405927962e+00   3.443991104000000e+00 -6.08734632e+00   3.30198495e+00  -4.16634040e-01
C     3.787693117500000e+00   3.641540175823150e+00   3.569311024000000e+00  1.00530263e+00  -3.38701046e+00   1.34666095e+00
C     3.656148454125000e+00   2.175890220931027e+00   1.329303208800000e+01  2.37304545e+00  -2.06312710e+00  -2.17145321e+00
C     4.937460322500000e+00   2.821974104707758e+00   1.349394475200000e+01 -1.92537747e+00   7.83777260e-01   1.77089561e+00
C     5.015000114325000e+00   2.843733275255472e+00   3.783318584000000e+00 -2.64276192e+00   4.31159960e+00  -3.18206485e+00
C     6.226895783250000e+00   3.642171635648146e+00   3.562826952000000e+00 -6.47963833e+00  -1.86973270e+00   1.01829860e+00
C     6.142453498424999e+00   2.188135290044504e+00   2.140777360000000e-01  3.10026070e-01  -6.86878478e+00  -3.19405123e+00
C     7.400564367749999e+00   2.692150191498768e+00   3.507100000000000e-02  3.34427620e-01   4.94293197e+00  -1.11896900e-02
C     7.254369691725000e+00   2.865912372991068e+00   3.353367368000000e+00  1.06058161e+01   2.02634950e+00   1.05764580e-01
C     8.545482079650000e+00   3.654130306350124e+00   3.412189544000000e+00  3.82878935e+00  -1.32859308e+00  -6.27679430e-01
C     9.808845987224998e+00   4.247217035057997e+00   1.309943296000000e+01  4.81250784e+00  -2.32442499e+00   4.54018340e-01
C     3.752105604375000e+00   4.877606196224963e+00   1.324968780000000e+01 -4.25499985e+00   4.20724746e+00  -7.36342300e-02
C     3.748945388100000e+00   4.993510903273293e+00   3.659303584000000e+00 -9.02602790e-01   3.12167940e+00   1.73261110e-01
C     4.965961428975000e+00   5.672363453242286e+00   3.580644448000000e+00 -1.17156422e+00   4.59964947e+00  -5.46903630e-01
C     4.881313304324999e+00   4.260973637111592e+00   4.097979200000000e-02  2.92647320e-01  -3.69841164e+00  -1.14892999e+00
C     6.079867764675000e+00   4.894942009911354e+00   1.501895600000000e-01  3.22860619e+00   3.13334574e+00  -2.06988808e+00
C     6.157637541000000e+00   5.036096912509463e+00   3.517807144000000e+00  3.49385310e+00  -1.73536595e+00   7.93649360e-01
C     7.441241119874999e+00   5.617175657729836e+00   3.639089360000000e+00 -2.61794830e+00   7.87746475e+00  -2.15535549e+00
C     7.346017257825000e+00   4.061219967222218e+00   1.356697444000000e+01  1.25307136e+00   6.06026857e+00   5.80505760e-01
C     8.636369217899999e+00   4.785450526684027e+00   1.337831415200000e+01 -4.53998520e+00   6.26198411e+00  -3.16615000e-03
C     8.669595507524999e+00   5.076837022502645e+00   3.507183640000000e+00  2.95225270e-01  -3.78218109e+00   1.52051093e+00
C     9.904917020475001e+00   5.741415826595849e+00   3.769241088000000e+00  1.64093240e-01   2.46968861e+00  -2.70033816e+00
C     3.728126355525000e+00   6.374347478133235e+00   7.367202416000000e+00 -1.24514382e+00   4.87551827e+00  -2.83712871e+00
C     1.306103310075000e+00   7.056897206164806e-01   6.952902760000000e+00 -2.80948923e+00   1.79062140e+00   1.63753700e-02
C     1.321375057350000e+00   6.460247724766836e-01   1.022059665600000e+01 -9.32119266e+00  -2.23965047e+00  -8.99870270e-01
C     2.427125114775000e+00   1.347326039437178e+00   1.023296884800000e+01  3.02286532e+00   2.09324713e+00  -9.75356020e-01
C     6.159083152575000e+00   6.397569060963280e+00   6.630146880000000e+00  1.79325268e+00   2.09330209e+00  -2.15740650e-01
C     3.784032703425000e+00   6.967130004592759e-01   6.364799456000000e+00 -1.37577342e+00   1.39151510e+00   2.95843586e+00
C     3.646192232850000e+00   6.379359386291893e-01   1.039363802400000e+01  2.92516854e+00  -5.77857750e-01   2.59590754e+00
C     4.927215733200000e+00   1.366703594571916e+00   1.053011103200000e+01 -4.67455453e+00   1.75725505e+00  -4.35222111e+00
C     4.998510669375000e+00   9.887597752632600e-03   6.951408392000000e+00 -4.63363245e+00   1.47289821e+00  -3.02356811e+00
C     6.104532493050001e+00   7.037108689803192e-01   7.110119576000000e+00  7.01275772e+00   4.46805890e+00   1.36356450e+00
C     6.095259532800000e+00   7.296116090435173e-01   1.030875158400000e+01  3.90347300e-01  -3.57144632e+00   1.20491060e+00
C     7.215216864225000e+00   1.426473828710931e+00   1.010292564800000e+01  8.28127983e+00  -3.49943615e+00   3.07890850e-01
C     8.609371699800000e+00   2.254439148052291e+00   6.799782808000000e+00  1.27406114e+00  -4.79204623e+00   9.64741250e-01
C     2.474332095600000e+00   2.862810214526262e+00   6.685591904000000e+00  1.76117186e+00   2.99927280e-01  -1.73162741e+00
C     2.414480404275000e+00   2.791094374371303e+00   9.995814360000001e+00  1.02862565e+00   4.93946390e-01   1.09145358e+00
C     3.716936611275000e+00   3.473051260252774e+00   9.951309856000000e+00 -4.50142968e+00   1.76469150e-01   5.13874680e-01
C     3.771700431675000e+00   2.194036045151551e+00   6.312918175999999e+00 -3.29274200e+00  -3.20796901e+00   2.97188458e+00
C     4.922406431924999e+00   2.902491828780344e+00   6.603383032000000e+00  2.77521846e+00  -8.05798650e-01   1.60420358e+00
C     4.894185817800000e+00   2.715016466102741e+00   9.978521960000000e+00  2.37430987e+00   1.79984147e+00   2.60726784e+00
C     6.156945516900000e+00   3.474183725170159e+00   1.007509692000000e+01 -1.25447891e+00   1.74651327e+00   1.35078986e+00
C     6.227566324875000e+00   2.223222681837558e+00   6.976330664000000e+00 -6.39928918e+00  -4.40457512e+00  -1.71290072e+00
C     7.355286705449999e+00   2.883482006131927e+00   6.908963063999999e+00  4.57685313e+00   4.63314473e+00  -4.14047470e-01
C     7.398686111699999e+00   2.735023495742538e+00   1.012975708800000e+01 -2.32649196e+00   5.80119353e+00  -1.57651220e-01
C     8.584250182274999e+00   3.550306847499212e+00   1.012817731200000e+01  2.29768023e+00  -1.71097371e+00   9.36178820e-01
C     2.532387097725000e+00   4.264027699599868e+00   6.876969879999999e+00 -5.79510095e+00   7.55740090e-01   8.19520460e-01
C     3.557438108400000e+00   5.059721451244060e+00   7.150764671999999e+00  8.50503194e+00  -3.90118866e+00  -1.70641773e+00
C     3.544315754850000e+00   4.891494405777580e+00   1.007651771200000e+01  4.58190894e+00   1.46036445e+00   1.75231500e-01
C     4.847690272950000e+00   5.606164881233718e+00   1.016955857600000e+01  1.32455860e+00   1.82417959e+00   1.07391226e+00
C     4.925316623250000e+00   4.253283980656511e+00   6.855912864000000e+00 -8.44122320e-01   3.57934231e+00   4.40762900e-02
C     6.185298501525000e+00   4.989270452016451e+00   6.695032480000000e+00 -3.27117496e+00   1.01187045e+00   1.40051963e+00
C     6.095300020424999e+00   4.985553164584193e+00   1.038892780000000e+01  2.28895165e+00  -4.60713566e+00  -1.20311048e+00
C     7.451116070099999e+00   5.607814361888139e+00   1.070952508800000e+01 -5.67138772e+00   2.45549259e+00  -3.35631560e+00
C     7.400857172775000e+00   4.428179459619716e+00   6.781187664000000e+00  2.01698223e+00  -5.39783434e+00   3.28965440e-01
C     8.665859553524999e+00   5.052219055288806e+00   6.933758448000001e+00 -2.76798320e-01  -3.79772106e+00  -4.92085260e-01
C     8.657371202775000e+00   4.950178605868697e+00   1.051546600800000e+01 -1.66989458e+00  -1.80682778e+00  -1.49654033e+00
C     9.814104349874999e+00   5.699611008733442e+00   1.036048190400000e+01  8.24576830e-01  -1.64044770e+00  -8.60831100e-01
