64
Lattice="9.86 0 0 4.93 8.53901048131456 0 0 0 30 " PBC="1 1 1" Properties=species:S:1:pos:R:3:force:R:3 Energy="-514.86240479"
C     4.971745021499999e+00   8.406242956403291e+00  -2.423496000000007e-01 -1.70554371e+00  -1.53083729e+00   3.37508750e-01
C     1.246140176100000e+00   5.878590397543864e-01  -2.137002000000017e-01  1.04334006e+00  -1.26696606e+00  -7.21715000e-02
C     1.246746615400000e+00   8.345759010420832e-01   3.457858200000000e+00 -2.18441592e+00   1.64377797e+00   2.78404390e-01
C     2.430375180300000e+00   1.587089093497908e+00   3.561995100000000e+00  1.69790996e+00  -2.74792560e-01   4.59933800e-02
C     7.392972636100000e+00   8.351574674288445e+00  -2.589134999999985e-01  1.38141679e+00   2.35478660e+00   2.43649790e-01
C     3.723536562500000e+00   5.416436948939015e-01  -1.846104000000004e-01 -5.03299450e-01  -7.17265500e-02   8.25990110e-01
C     3.689649073600000e+00   8.600976371251263e-01   3.434878800000000e+00 -3.99539540e-01   8.24389470e-01  -5.67584700e-02
C     4.917616973900000e+00   1.602404321134417e+00   3.425889900000000e+00 -6.30744520e-01  -4.79849880e-01   2.85767830e-01
C     9.890569451000001e+00   8.355512268191088e+00  -8.659409999999923e-02 -1.32236553e+00   1.20009031e+00  -3.00357520e-01
C     6.166171420300000e+00   5.354827988325815e-01  -8.768129999999985e-02  9.72591070e-01   3.48070370e-01  -3.86297520e-01
C     6.146326937800000e+00   8.720068242613728e-01   3.341600700000000e+00 -6.93789230e-01  -5.61916910e-01   9.53175500e-02
C     7.367414677999998e+00   1.562017448657266e+00   3.332190900000000e+00 -3.69560240e-01   1.44666437e+00   5.22741760e-01
C     1.231765282100000e+01   8.325490302804875e+00  -9.457379999999915e-02  1.55938765e+00   1.65609527e+00   5.99007700e-02
C     8.635253065900001e+00   5.232016523998264e-01  -2.481554999999993e-01 -6.79708500e-02   2.41198240e-01   6.97884760e-01
C     8.582418798199999e+00   9.302555134704832e-01   3.415845900000000e+00  1.82970102e+00  -3.24557999e+00  -1.82015800e-02
C     9.837640379400000e+00   1.554253438768430e+00   3.514661700000000e+00  6.55472800e-01   2.38112922e+00  -2.01640180e-01
C     1.294689780800000e+00   1.993774752436667e+00  -2.757929999999931e-02 -2.07940240e+00  -1.14487960e-01  -2.66540820e-01
C     2.480930999200000e+00   2.677887994634653e+00   1.416438000000000e-01  1.71254060e+00   1.24584583e+00  -6.59337900e-02
C     2.431008537400000e+00   3.008472028203241e+00   3.771431100000000e+00  3.69981790e-01  -5.27909790e-01  -5.95067000e-01
C     3.683809094200000e+00   3.733546562113368e+00   3.713438100000000e+00 -5.08593970e-01  -1.39654559e+00  -2.26905290e-01
C     3.735538499600000e+00   1.975852394120405e+00   3.055500000000000e-03 -1.35464344e+00  -6.34580920e-01  -2.43112100e-01
C     4.922844450099999e+00   2.706502645703657e+00  -4.212659999999957e-02  1.87578657e+00  -1.86869340e-01  -1.09707410e-01
C     4.887845049000000e+00   3.033503625084732e+00   3.547443000000000e+00  1.86386916e+00  -1.40844399e+00  -4.12940530e-01
C     6.176182672700000e+00   3.692973368427543e+00   3.420847200000000e+00 -1.85422886e+00   9.91157140e-01  -4.84701300e-02
C     6.197814428099999e+00   1.982589246438601e+00  -1.717449000000002e-01 -2.42002009e+00  -6.94700670e-01   3.36111270e-01
C     7.393262322900000e+00   2.674950831199847e+00  -2.432033999999987e-01  1.85060633e+00   7.27694110e-01   2.38776440e-01
C     7.394695523200000e+00   2.968455663390817e+00   3.377481000000000e+00 -5.37586510e-01   1.50200224e+00  -1.64943710e-01
C     8.604911232999999e+00   3.729695809947307e+00   3.439265700000000e+00  3.26061950e-01  -6.68259590e-01  -2.66299610e-01
C     8.634475949999999e+00   1.936088954798398e+00  -2.292638999999994e-01  1.14497405e+00   1.99561563e+00   1.82805680e-01
C     9.917755837399998e+00   2.721169506274419e+00  -6.874110000000044e-02 -1.98072578e+00  -1.59841202e+00  -8.77804400e-02
C     9.832505340700001e+00   3.050015253479594e+00   3.578103000000000e+00 -1.96140100e-01  -3.43183182e+00   1.14300600e-01
C     1.104578021410000e+01   3.700191393986287e+00   3.773847600000000e+00  7.53935380e-01   1.04858602e+00  -4.54025210e-01
C     2.470602304100000e+00   4.124823405860758e+00   2.958477000000000e-01  7.92004200e-01  -1.03829212e+00  -5.94657130e-01
C     3.709744936800000e+00   4.830681323636168e+00   2.019483000000000e-01 -2.13939370e-01  -8.72791510e-01   7.60979900e-02
C     3.703268691599999e+00   5.119893680648947e+00   3.642884100000000e+00 -1.27722048e+00   1.60133295e+00   2.73529490e-01
C     4.878484211500000e+00   5.891278769386409e+00   3.490596900000000e+00  1.90292103e+00  -2.05485928e+00  -4.13190080e-01
C     4.902471866000000e+00   4.136962890109650e+00   5.121300000000000e-03  2.47998518e+00  -5.84980880e-01  -3.35970470e-01
C     6.177283048700000e+00   4.855793272606276e+00  -1.838937000000023e-01 -3.73637980e-01  -1.02977968e+00  -1.08661800e-01
C     6.134108968100000e+00   5.123453850288374e+00   3.349159200000000e+00  8.95470360e-01   1.35568257e+00   4.87714220e-01
C     7.406562822000000e+00   5.857631737881124e+00   3.269386500000000e+00 -1.55224858e+00  -7.80041740e-01  -4.38057100e-02
C     7.427408932600000e+00   4.120275101928586e+00  -2.358566999999994e-01 -1.16669689e+00  -2.59233590e-01   3.13178430e-01
C     8.654284640699998e+00   4.826759783073228e+00  -1.241418000000003e-01 -5.02512560e-01   4.39593850e-01   3.54089500e-02
C     8.643460431299999e+00   5.139213960370890e+00   3.329742000000000e+00 -1.79265342e+00   3.58228040e-01   6.60153790e-01
C     9.829816765199999e+00   5.865510512070809e+00   3.473581800000000e+00  1.49062670e+00  -1.19667437e+00   1.54748430e-01
C     9.868527963300000e+00   4.135516637904652e+00   5.626020000000000e-02  1.21504421e+00  -7.77401100e-01  -2.14718020e-01
C     1.112893891180000e+01   4.838304269071873e+00   2.297565000000000e-01 -2.20262501e+00  -2.21273360e-01  -3.39010500e-01
C     1.105224063400000e+01   5.121676967597590e+00   3.716187000000000e+00  1.92029390e-01   7.89179100e-01  -6.50632800e-01
C     1.230639472230000e+01   5.795131389963916e+00   3.655081200000000e+00 -1.51706670e-01   1.88946150e+00  -7.92862900e-02
C     3.760660300600000e+00   6.215961578202376e+00   1.506810000000000e-01 -9.35660370e-01   2.08835402e+00  -8.20797110e-01
C     4.946466397199999e+00   6.939763457990563e+00  -1.423461000000010e-01  9.35314230e-01   1.59978971e+00  -2.12687000e-01
C     4.894714215200000e+00   7.299504455183741e+00   3.437110800000000e+00  4.37240050e-01   2.53418150e-01  -3.05257870e-01
C     6.151238105200000e+00   7.981584558986438e+00   3.323694600000000e+00 -1.74556380e-01  -5.01265630e-01   4.12765510e-01
C     6.183599857700000e+00   6.278541509697257e+00  -2.994482999999981e-01 -6.13402300e-02  -1.58680245e+00   1.04110394e+00
C     7.435689064800000e+00   6.952722601855430e+00  -2.959608000000031e-01 -1.26917211e+00   3.10032130e-01   1.02061000e-03
C     7.375570722099999e+00   7.278811614917242e+00   3.264477600000000e+00  4.80064420e-01  -6.07856910e-01   1.50498320e-01
C     8.618206161200000e+00   7.972585125061357e+00   3.313813800000000e+00 -6.77839660e-01   1.02102310e+00   4.08535600e-02
C     8.639965504999999e+00   6.259125080717308e+00  -1.378217999999976e-01  2.21467820e-01  -1.01049965e+00  -2.20908450e-01
C     9.859176394199999e+00   6.952673075594647e+00  -2.628119999999967e-02  5.12945640e-01  -1.91198310e-01   1.45467200e-02
C     9.832437405299999e+00   7.266339365429945e+00   3.368646300000000e+00  6.49383410e-01   3.66348580e-01   1.03107190e-01
C     1.106564382500000e+01   7.975107719537358e+00   3.388849200000000e+00  5.56095250e-01  -7.28176900e-02   2.41730680e-01
C     1.106155241800000e+01   6.242583480395663e+00   1.345638000000000e-01  3.35630268e+00   5.29835370e-01   4.72525630e-01
C     1.239725003740000e+01   6.949250640194263e+00   1.359435000000000e-01 -3.00179142e+00  -9.89434870e-01  -3.80021550e-01
C     1.230761820040000e+01   7.246702459199403e+00   3.502345500000000e+00  6.84769300e-02   5.32415080e-01  -7.76797300e-02
C     1.354033216240000e+01   8.024140937856243e+00   3.457832700000000e+00 -1.15666085e+00  -8.66949390e-01  -7.44922000e-03
