64
Lattice="9.86 0 0 4.93 8.53901048131456 0 0 0 30 " PBC="1 1 1" Properties=species:S:1:pos:R:3:force:R:3 Energy="-514.71822631"
C     5.072958611700000e+00   6.732362421095511e+00  -2.767091999999991e-01 -2.00770806e+00  -1.83309540e-01   7.97748550e-01
C     6.268868447499999e+00   7.464459778784809e+00  -1.193555999999987e-01  4.19401980e-01  -5.97809330e-01  -1.62913260e+00
C     9.710874697800000e+00   1.789781890794498e+00   3.709239600000000e+00  1.10414000e-01  -1.01894414e+00   1.21325780e-01
C     1.096407946530000e+01   2.431922395488987e+00   3.623028000000000e+00  1.30580697e+00   2.21254183e+00   1.59022150e-01
C     7.503514082099999e+00   6.750239864216649e+00  -1.444440000000000e-01 -1.11824390e-01   8.66434200e-01   7.23802740e-01
C     8.737402468700001e+00   7.485027180987356e+00  -1.366538999999989e-01 -5.13275180e-01  -6.40231510e-01  -4.96053160e-01
C     2.371084633900000e+00   1.734620139264012e+00   3.656627700000000e+00 -3.38764600e-01   1.03086365e+00  -2.02960700e-02
C     3.603843508200000e+00   2.510614244298160e+00   3.641418300000000e+00 -1.23033403e+00  -4.19926630e-01  -7.72380120e-01
C     9.938465534899999e+00   6.722787628644287e+00  -2.406378000000018e-01  2.69598690e-01   2.55433943e+00  -1.51905630e-01
C     1.115458881440000e+01   7.444046847281845e+00  -2.936027999999986e-01  1.44306040e+00   8.51752970e-01   8.19212500e-02
C     4.859347824900000e+00   1.887365275609414e+00   3.518017800000000e+00 -1.41424714e+00  -3.59461124e+00   1.26915721e+00
C     6.088819227300000e+00   2.516432469868918e+00   3.636824700000000e+00 -1.36880297e+00   1.20816227e+00  -3.79026690e-01
C     1.241477584230000e+01   6.773657588117420e+00  -3.349437000000002e-01  4.60554570e-01  -1.31669478e+00   4.70192960e-01
C     1.368055102520000e+01   7.450252658538290e+00  -2.803629000000001e-01 -5.75649110e-01   2.93238740e-01  -5.30314110e-01
C     7.252613169700000e+00   1.809506919613193e+00   3.670237500000000e+00  2.53901814e+00  -1.56964950e+00   4.51690650e-01
C     8.471301528200000e+00   2.504827698456283e+00   3.763728600000000e+00  2.10006479e+00   1.19841938e+00  -1.60675520e-01
C     1.328666009700000e+00   3.277744429503544e-01  -3.209403000000002e-01  6.26377670e-01   3.93911970e-01   9.68951500e-01
C     2.550198731700000e+00   1.062950626258321e+00  -2.285067000000005e-01  4.96452580e-01  -1.82278910e+00  -6.83285210e-01
C     1.101592640190000e+01   3.916439785029772e+00   3.559176900000000e+00 -1.81673720e+00  -2.02537895e+00   1.06921823e+00
C     1.220083045640000e+01   4.622415541149806e+00   3.528910500000000e+00  1.23233124e+00   2.74591490e-01  -2.20813050e-01
C     3.821806893400000e+00   3.838606277554048e-01  -1.872657000000011e-01 -2.10764041e+00  -1.75350077e+00   8.51741700e-02
C     5.016238912400000e+00   1.058096967311384e+00  -2.566625999999985e-01  1.75714440e+00   1.10250195e+00   7.19762390e-01
C     3.570137048899999e+00   3.909059347491699e+00   3.583923000000000e+00  1.04257036e+00   5.86681310e-01  -4.61254060e-01
C     4.842190192400000e+00   4.579514527817029e+00   3.526723800000000e+00 -3.41487400e-01   2.27169527e+00   1.00792168e+00
C     6.248488813500000e+00   3.333569064417592e-01  -2.344682999999996e-01  2.35223300e-01   5.59202760e-01  -2.34972990e-01
C     7.497618590899999e+00   1.066991627577876e+00  -2.183865000000011e-01  2.32229890e-01  -7.59666060e-01  -6.75847700e-02
C     6.089157819700000e+00   3.917769821302137e+00   3.677997900000000e+00  1.85644990e-01   6.17825250e-01  -5.62742780e-01
C     7.327006524600000e+00   4.632788218740282e+00   3.746506500000000e+00 -4.38298440e-01   1.11416202e+00   7.79965490e-01
C     8.731920801699999e+00   3.386720989051400e-01  -3.060350999999990e-01  3.27656340e-01   1.11611750e-01   5.81830000e-02
C     9.981474608400001e+00   1.040376812763288e+00  -4.068599999999982e-01 -1.50462139e+00   1.08500142e+00   2.87066200e-01
C     8.570981543299999e+00   3.961138089288380e+00   3.829488899999999e+00 -1.45795672e+00  -2.05328294e+00  -6.19669090e-01
C     9.802996283399999e+00   4.638803268502603e+00   3.765809100000000e+00 -1.55035290e-01   5.03335620e-01  -5.94144120e-01
C     2.544395185000000e+00   2.431619858347680e+00  -3.378165000000024e-01  9.68087070e-01   1.94399126e+00   4.92520680e-01
C     3.779475349800000e+00   3.153350686534048e+00  -1.714853999999981e-01 -2.38722240e-01   6.74584850e-01  -4.26739160e-01
C     1.218816957550000e+01   6.033235036770542e+00   3.473263200000000e+00  1.63118180e+00   1.48159548e+00   4.97474470e-01
C     1.346613590890000e+01   6.762643801620106e+00   3.570316500000000e+00 -5.79980460e-01  -1.54050841e+00  -3.66621620e-01
C     5.030426219900000e+00   2.495024316694510e+00  -1.796475000000015e-01  1.79723800e-01  -8.85059370e-01   3.31096920e-01
C     6.272315848600000e+00   3.187271564105429e+00  -7.126560000000026e-02  3.78166230e-01   1.37313070e-01  -2.28220770e-01
C     4.839947288899999e+00   6.043343346596556e+00   3.579738300000000e+00  4.72417490e-01  -5.43906000e-03  -1.01882810e-01
C     6.093942384700000e+00   6.813717672663501e+00   3.672906300000000e+00 -1.42521369e+00  -3.70999538e+00   4.67835150e-01
C     7.537733606500000e+00   2.490132317590518e+00  -1.247946000000013e-01 -1.00773800e+00   3.18514480e-01  -2.79228830e-01
C     8.753700950099999e+00   3.249391755276066e+00  -2.302116000000005e-01 -5.01555920e-01  -1.44646427e+00  -6.43234020e-01
C     7.313266516000000e+00   6.064995117739958e+00   3.803249099999999e+00 -9.04776380e-01   5.32394600e-02  -1.06326777e+00
C     8.510103290400000e+00   6.785565323621885e+00   3.731674500000000e+00  2.02796706e+00  -1.09102881e+00   3.92948390e-01
C     9.963580976199999e+00   2.497616504105923e+00  -4.585307999999984e-01 -7.67120000e-03  -7.21532640e-01   9.04014990e-01
C     1.120911742450000e+01   3.162227585658742e+00  -4.541370000000029e-01 -1.19282374e+00   1.90454134e+00  -2.74124500e-02
C     9.766538538999999e+00   6.071118271374957e+00   3.732573900000000e+00  1.64830600e-01   1.72155970e-01  -9.69896870e-01
C     1.098920402710000e+01   6.781987563620870e+00   3.500294700000000e+00 -6.20201000e-01   2.17775510e-01   7.90436120e-01
C     3.746288118099999e+00   4.574537907119179e+00  -1.397826000000002e-01  1.25081298e+00   1.13975350e+00  -1.35357949e+00
C     5.007798160800000e+00   5.301994568782912e+00  -2.261433000000004e-01  5.32435010e-01  -2.28945290e-01   1.29112395e+00
C     1.348521007890000e+01   8.166066379412541e+00   3.665028300000000e+00 -1.98248907e+00   9.07521830e-01  -8.64151300e-02
C     9.735607225999999e+00   3.519284857248160e-01   3.723705900000000e+00  1.61518373e+00   3.97178340e-01  -5.67224600e-02
C     6.266097442400000e+00   4.611229095860587e+00  -6.707579999999780e-02 -1.22225814e+00  -2.85650100e-01  -7.13533610e-01
C     7.480623007500000e+00   5.325762648283678e+00  -1.261223999999999e-01 -1.49975300e-01   1.25281766e+00   1.30555750e-01
C     6.073504280900000e+00   8.179923997960115e+00   3.735822600000000e+00 -9.86430930e-01   1.61690271e+00  -3.09881990e-01
C     2.378261284200000e+00   3.183817875926688e-01   3.710180700000000e+00 -2.04853090e-01   1.45929991e+00  -2.90964720e-01
C     8.699294012399999e+00   4.674795368456012e+00  -2.315651999999986e-01  1.38172277e+00  -1.95190734e+00  -4.88871100e-02
C     9.939665595499999e+00   5.355974521262965e+00  -3.494609999999980e-01 -1.75111290e-01  -1.72693412e+00   1.33272480e-01
C     8.529167107399999e+00   8.180286820515409e+00   3.637235100000000e+00  1.16924257e+00   1.48755125e+00   2.84030430e-01
C     4.834420463100000e+00   4.303539174070136e-01   3.575858700000000e+00  7.95908700e-02  -9.35650030e-01  -6.29499990e-01
C     1.116134463990000e+01   4.630694709540901e+00  -4.411677000000012e-01  1.08310688e+00  -1.02103488e+00   5.91674420e-01
C     1.240747939300000e+01   5.326725421715297e+00  -3.192912000000021e-01 -5.48161430e-01   1.72848370e-01   7.63607200e-02
C     1.100332088490000e+01   8.234732832187461e+00   3.521321400000000e+00 -5.22564730e-01  -5.41555680e-01   3.93832790e-01
C     7.305136650200001e+00   3.784453580891984e-01   3.643505100000000e+00  1.03408300e-02  -3.33954370e-01  -6.24824650e-01
