64
Lattice="9.86 0 0 4.93 8.53901048131456 0 0 0 30 " PBC="1 1 1" Properties=species:S:1:pos:R:3:force:R:3 Energy="-515.65911416"
C     4.978985515300000e+00   7.330538378701938e+00  -1.765694999999994e-01  6.32498360e-01  -5.25370100e-02  -1.39678280e-01
C     6.236496440599999e+00   8.039680570688166e+00  -2.051592000000007e-01 -1.43601491e+00   1.38828670e-01  -2.48370880e-01
C     9.825799899800000e+00   1.235904611756214e+00   3.546025800000000e+00 -8.43676600e-02  -2.45038750e-01   5.23726450e-01
C     1.199461851500000e+00   1.920027844596462e+00   3.637738800000000e+00 -8.51957300e-02  -4.81571230e-01  -9.32343590e-01
C     7.439037915200000e+00   7.298973670292304e+00  -2.619965999999998e-01  5.75541610e-01   1.09420454e+00   7.49509860e-01
C     8.689573629999998e+00   8.015811133133004e+00  -1.901553000000007e-01 -9.76705000e-01  -2.32412040e-01  -5.77837740e-01
C     2.433899735900000e+00   1.208979489300783e+00   3.475670100000000e+00 -4.08204600e-01  -1.47275700e-02   9.09733960e-01
C     3.625641305999999e+00   1.948958097492806e+00   3.485112300000000e+00  9.03759280e-01  -1.62791350e-01  -4.44166300e-02
C     9.895854805399999e+00   7.318288058097016e+00  -2.568605999999996e-01  1.47928906e+00  -9.25970440e-01   5.80982040e-01
C     1.115488185360000e+01   8.023453547512604e+00  -2.411667000000008e-01 -9.04949460e-01  -1.28481530e-01   3.41635210e-01
C     4.860037186800000e+00   1.216459747871368e+00   3.536044200000000e+00 -4.65559670e-01   1.41252010e-01   2.63817900e-02
C     6.062080337000000e+00   1.934909888231320e+00   3.576513000000000e+00  2.43047918e+00  -1.73721505e+00   1.53538060e-01
C     1.238379020070000e+01   7.293696134865140e+00  -2.441000999999972e-01  7.10267600e-02   1.12752958e+00   3.54167100e-02
C     1.360639993050000e+01   8.037117245132176e+00  -1.802273999999997e-01  1.32060290e-01   2.01704900e-01  -3.51786380e-01
C     7.350448181600000e+00   1.191999581571198e+00   3.633817800000000e+00 -1.17619319e+00   2.00853401e+00  -2.68265180e-01
C     8.591379566200001e+00   1.941381091933483e+00   3.595554000000000e+00 -1.17093601e+00  -1.72527506e+00   1.81695100e-01
C     1.294746426500000e+00   9.383104474463720e-01  -2.160441000000013e-01 -5.57136140e-01  -8.18590160e-01   6.25125750e-01
C     2.540910759600000e+00   1.596199449169125e+00  -1.638993000000006e-01 -1.07535829e+00   1.69991504e+00  -1.04826200e-02
C     1.101470144480000e+01   3.312580859778590e+00   3.721800300000000e+00  1.67987339e+00   2.74386978e+00  -6.11155360e-01
C     2.423363389200000e+00   4.093098334834309e+00   3.684180600000000e+00 -9.39078530e-01  -1.04375872e+00  -9.26617200e-02
C     3.744059905999999e+00   8.794951948919136e-01  -1.341321000000022e-01  1.29870627e+00   1.65106802e+00   1.88268900e-02
C     4.989426959499999e+00   1.660704756747036e+00  -9.449010000000158e-02 -8.11527490e-01  -2.41310065e+00   1.92581400e-02
C     3.642659370200000e+00   3.388967261148269e+00   3.509153700000000e+00 -4.17591110e-01  -7.80967220e-01   5.71096980e-01
C     4.879839320600000e+00   4.071927736931454e+00   3.514234500000000e+00  3.60791600e-02   2.86336980e-01   4.54795520e-01
C     6.201045796600000e+00   9.199791559182223e-01  -1.467768000000014e-01  1.75666010e-01  -5.36200620e-01  -9.30090810e-01
C     7.415015257700000e+00   1.620907673723738e+00  -2.896718999999983e-01  1.22284494e+00   3.50264940e-01   1.11183426e+00
C     6.089268005200000e+00   3.319494896564247e+00   3.562313400000000e+00  2.81310590e-01   2.01584099e+00  -1.89901950e-01
C     7.328883129100001e+00   4.051933558502430e+00   3.603009000000000e+00 -7.69881170e-01  -1.25156820e-01   7.01116700e-02
C     8.663474949499999e+00   9.357485735221625e-01  -2.153267999999997e-01  4.32303230e-01  -3.54500680e-01  -4.67388100e-02
C     9.905740934400001e+00   1.671086229518306e+00  -1.652912999999998e-01  3.00145450e-01  -1.56169071e+00  -8.85957610e-01
C     8.544324293799999e+00   3.332013769048765e+00   3.631434900000000e+00  1.07858957e+00   1.47881704e+00  -3.20729800e-01
C     9.792064600000000e+00   4.058524564521627e+00   3.634620900000000e+00 -2.49422440e-01  -1.12248669e+00   7.83252170e-01
C     2.510444444200000e+00   3.056006820963096e+00  -1.367007000000022e-01  6.50026420e-01  -1.13508885e+00   3.95748800e-01
C     3.731448768800000e+00   3.744975173739800e+00  -1.162776000000001e-01  1.65263760e+00   8.56198840e-01   2.05708460e-01
C     1.230599943490000e+01   5.517655561295477e+00   3.741084000000000e+00 -2.33576608e+00  -8.02712710e-01  -5.75217140e-01
C     3.629931835700000e+00   6.228294727208954e+00   3.599900100000000e+00  1.82156697e+00   5.10146010e-01   3.13148810e-01
C     4.997336898000000e+00   3.051471752497168e+00  -7.281090000000034e-02 -3.41634940e-01   7.62320010e-01  -7.93349970e-01
C     6.247974417300000e+00   3.765691581675223e+00  -2.022978000000002e-01 -1.70272878e+00  -3.29477800e-01   6.61917750e-01
C     4.893091259200000e+00   5.503387984854760e+00   3.586680600000000e+00 -2.04973978e+00  -2.50964150e-01  -8.39595300e-01
C     6.075559252800000e+00   6.206857626789019e+00   3.490309200000000e+00  2.11728396e+00   1.05077160e+00   1.07695390e+00
C     7.454824909100000e+00   3.042631912677958e+00  -2.512515000000022e-01  4.07928000e-02   2.90570780e-01  -1.12675600e-02
C     8.680744985999999e+00   3.767282826278171e+00  -2.070258000000003e-01  2.38440270e-01  -3.55672580e-01   1.08946430e-01
C     7.311622410300000e+00   5.482556641838277e+00   3.591450300000000e+00  2.81999480e-01  -4.48841800e-02  -1.14169966e+00
C     8.557118383299999e+00   6.181514270634904e+00   3.506944500000000e+00  2.64552650e-01   7.92043000e-03   1.07652169e+00
C     9.926280152500000e+00   3.074018924279503e+00  -2.156855999999969e-01 -5.66946350e-01   2.65089870e-01   9.75236410e-01
C     1.115601738050000e+01   3.783814777517975e+00  -8.986979999999889e-02 -2.58343830e-01  -1.42507180e+00  -6.15429380e-01
C     9.779873498799999e+00   5.469109151964058e+00   3.645074100000000e+00  1.00815262e+00   4.22400160e-01  -3.07892180e-01
C     1.102885024900000e+01   6.195393492878990e+00   3.714377400000000e+00  7.86682200e-02  -4.35359600e-02  -6.64645380e-01
C     3.787266968300000e+00   5.183708011498816e+00  -1.608564000000001e-01 -1.77161740e+00  -8.48122250e-01  -3.61089150e-01
C     4.982693861300000e+00   5.894992043483743e+00  -1.950222000000004e-01  4.20416780e-01   6.43481950e-01   3.45202180e-01
C     1.349196038280000e+01   7.667189293826462e+00   3.564861300000000e+00  1.51403808e+00  -1.38038285e+00   3.27649080e-01
C     4.916322109399999e+00   8.360382919768879e+00   3.522316800000000e+00 -1.62117928e+00   2.80123600e-02   3.68458800e-02
C     6.193249642500000e+00   5.177874501099300e+00  -1.839086999999999e-01  1.42089019e+00   4.08103930e-01  -3.51785660e-01
C     7.424459313600000e+00   5.901296992651861e+00  -2.152947000000012e-01  5.49724740e-01  -1.02019110e+00   2.66846850e-01
C     6.142405319999999e+00   7.662974438253534e+00   3.524434200000000e+00 -6.30605980e-01  -2.05575461e+00  -4.99852690e-01
C     7.395655985799999e+00   8.304862785968549e+00   3.495837600000000e+00 -1.02761086e+00   1.74226245e+00  -5.60802600e-02
C     8.677182321499998e+00   5.181355855671995e+00  -1.309836000000004e-01 -1.07796932e+00   1.11442850e-01  -9.23177830e-01
C     9.891454336699999e+00   5.875477501273379e+00  -1.953779999999981e-01  1.49989034e+00   8.32291100e-01   5.69210100e-01
C     8.607868986500000e+00   7.606685708119898e+00   3.526090500000000e+00 -3.41698550e-01  -4.70414770e-01  -1.62867810e-01
C     9.819902633799998e+00   8.330924870634767e+00   3.592130700000000e+00 -3.97775130e-01   6.43408600e-02  -7.90447570e-01
C     1.115762505350000e+01   5.167763629570142e+00  -9.105029999999914e-02 -6.34738600e-02   1.87138816e+00  -1.22659016e+00
C     1.241398457730000e+01   5.882095575955799e+00  -2.425217999999987e-01 -1.18768127e+00  -2.82587970e-01   1.11832288e+00
C     1.103351491640000e+01   7.612639533177078e+00   3.579512400000000e+00  4.84503000e-03  -2.37997220e-01   1.31034954e+00
C     1.225404226350000e+01   8.330991560306614e+00   3.660575700000000e+00  6.82718110e-01   3.09050060e-01  -9.22996480e-01
