64
Lattice="9.86 0 0 4.93 8.53901048131456 0 0 0 30 " PBC="1 1 1" Properties=species:S:1:pos:R:3:force:R:3 Energy="-501.96413771"
C     9.759257717799999e+00   1.131505986506896e-01  -2.729336999999994e-01  6.78805388e+00  -7.20454913e+00  -7.43058980e-01
C     1.207976257300000e+00   6.997704572042184e-01  -4.116752999999989e-01 -4.78173100e-01   5.39478250e-01   3.04056183e+00
C     1.229517744400000e+00   6.456880365984048e-01   3.533617500000000e+00  1.12462600e+00   3.97604243e+00  -1.42407800e-01
C     2.489241500200000e+00   1.454205097798253e+00   3.577485600000000e+00 -2.52580231e+00  -1.45845057e+00   1.13223230e-01
C     7.338384619499999e+00   8.423275208267119e+00  -2.627195999999969e-01  2.03599376e+00   5.35646358e+00  -5.59762830e-01
C     3.762770932200000e+00   7.221058615266497e-01  -1.117610999999989e-01 -3.51483673e+00  -3.97710246e+00  -1.04289613e+00
C     3.749561490200000e+00   7.652972012157472e-01   3.516499800000000e+00 -8.08249408e+00  -3.82690133e+00  -7.43930190e-01
C     4.840444775200000e+00   1.438400072520611e+00   3.494521200000000e+00  7.60409213e+00  -1.01733860e-01  -2.34183280e-01
C     4.982697509499999e+00   9.458875383958000e-02  -1.225205999999979e-01 -1.55831120e-01  -5.05613557e+00   5.70664010e-01
C     6.204525883600000e+00   7.277948918688448e-01  -2.246115000000017e-01 -1.25141180e+00   3.71536049e+00   1.03126707e+00
C     6.086482308700000e+00   6.673661078940857e-01   3.435243000000000e+00  3.68967033e+00   1.28749863e+00  -8.87515370e-01
C     7.416785029100000e+00   1.365885173112460e+00   3.471259200000000e+00 -2.76014352e+00   1.80472125e+00  -3.64621310e-01
C     7.413013726999999e+00   7.301810329573760e-02  -3.796739999999943e-02 -2.43498228e+00  -2.56644900e+00  -4.08076050e-01
C     8.598906394400000e+00   7.096568381478575e-01  -2.057507999999970e-01 -1.05659557e+00   1.36382571e+00  -1.50492050e-01
C     8.663279031300000e+00   8.038983958213208e-01   3.559822500000000e+00 -1.03859327e+00  -2.47997648e+00  -1.48366087e+00
C     9.867331698799999e+00   1.480757150885813e+00   3.566727000000000e+00  1.48476661e+00  -1.83978043e+00   3.40237830e-01
C     1.106995515930000e+01   2.110750742392292e+00  -2.210249999999903e-02  7.15074300e-01  -1.42619143e+00  -3.49169488e+00
C     2.522421534100000e+00   2.713603003697987e+00  -7.890120000000067e-02 -3.84748883e+00   4.96176243e+00   3.66464924e+00
C     2.398673554800000e+00   2.860774130172358e+00   3.680872200000000e+00  4.08112289e+00   9.26913000e-02   2.48263540e-01
C     3.796165470400000e+00   3.495053365648645e+00   3.717531600000000e+00 -7.67716705e+00   5.75525195e+00   3.05631760e-01
C     3.714244350600000e+00   2.051224361045059e+00  -2.236380000000082e-02  1.69378257e+00   3.58814952e+00  -1.83907780e-01
C     4.998378360499999e+00   2.851513658696903e+00   5.496900000000000e-03 -4.11104423e+00  -1.01095937e+00  -4.63191540e-01
C     4.901378293400000e+00   2.838508318785339e+00   3.537270300000000e+00  3.53632204e+00  -1.56006270e+00  -5.00718890e-01
C     6.133696228500000e+00   3.502606205808310e+00   3.366293400000000e+00  2.52635111e+00   8.34267960e-01  -3.09025590e-01
C     6.150307764899999e+00   2.275389354094656e+00  -2.404475999999995e-01  4.16381602e+00  -8.26968434e+00   7.54705400e-02
C     7.449105024500000e+00   2.806976912516577e+00  -2.500542000000010e-01 -4.76758602e+00   3.78563770e-01  -7.64753020e-01
C     7.440442028500000e+00   2.754319225809351e+00   3.310182300000000e+00 -2.50452208e+00   4.36423638e+00   2.33616675e+00
C     8.582982938099999e+00   3.648322711847414e+00   3.599385000000000e+00  5.10134720e-01  -2.03555677e+00  -2.61311486e+00
C     8.593550935400000e+00   2.074211889597848e+00  -2.859842999999991e-01  9.14379220e-01   2.25704435e+00   1.68598640e-01
C     9.756879978799999e+00   2.810824163688341e+00  -1.719738000000000e-01  5.79027804e+00  -1.48358919e+00   1.88294493e+00
C     9.831352805299998e+00   2.857452540485744e+00   3.615130200000000e+00  8.52628880e-01   4.25693974e+00   4.89076490e-01
C     1.108093067040000e+01   3.615271532493420e+00   3.673768200000000e+00 -8.82969700e-01  -1.55808300e-02  -8.74696200e-01
C     1.231250314020000e+01   4.310839003349278e+00   3.854187000000000e-01  2.99525930e-01  -4.85872602e+00  -2.18226235e+00
C     3.677874853200000e+00   4.922200388598293e+00   3.189921000000000e-01  3.37750303e+00   2.96974299e+00  -2.71634991e+00
C     3.753976502400000e+00   5.052454966800842e+00   3.733868100000000e+00 -1.04011764e+00  -5.54328651e+00  -4.19073700e-01
C     4.897473831999999e+00   5.716157753808902e+00   3.547146900000000e+00  2.50958438e+00   1.27429474e+00  -1.07357798e+00
C     5.000443537500000e+00   4.192298325113298e+00   8.646300000000001e-03 -2.75127038e+00   5.95847482e+00   9.05866390e-01
C     6.209998824500000e+00   5.007086606389867e+00  -2.524443000000005e-01 -2.55243524e+00  -4.87231692e+00   9.15924860e-01
C     6.180917346099999e+00   4.948236258502337e+00   3.338944200000000e+00 -5.53435339e+00  -1.65359415e+00   1.55340830e+00
C     7.283887462799999e+00   5.678255647991326e+00   3.443035200000000e+00  3.68433555e+00   3.81202400e+00  -2.29585987e+00
C     7.338571072100000e+00   4.167529900534801e+00  -3.347289000000018e-01  3.78111581e+00   2.63558085e+00   4.89507170e-01
C     8.607036210899999e+00   4.750731507803081e+00  -2.096625000000003e-01  2.12766785e+00   7.32653575e+00   1.04970107e+00
C     8.520200817799999e+00   5.118805639933585e+00   3.398284200000000e+00  5.69611103e+00  -3.68925200e+00   2.09939559e+00
C     9.931449306799999e+00   5.850792673607481e+00   3.488551800000000e+00 -3.56850508e+00  -3.02282034e+00  -1.30878403e+00
C     9.878540497500000e+00   4.170232155791301e+00   9.967440000000000e-02 -3.26201255e+00   1.09482007e+00  -1.55783552e+00
C     1.105014784900000e+01   4.946491311710749e+00   3.451188000000000e-01  1.65539367e+00   2.57938510e-01   9.86843300e-02
C     1.116063309300000e+01   5.052154564412155e+00   3.485105100000000e+00 -3.67770601e+00  -9.65908850e-01   1.77093054e+00
C     1.237398768450000e+01   5.701497724446524e+00   3.617926200000000e+00  1.10817513e+00  -1.70763444e+00  -1.17283590e-01
C     3.755761507499999e+00   6.431905724302458e+00  -3.724380000000238e-02 -2.53323857e+00  -1.67695730e+00   3.02105331e+00
C     4.981557940000000e+00   7.067627284038921e+00  -1.926096000000008e-01 -1.73656680e+00   3.12104304e+00  -7.09303100e-02
C     4.846322321200000e+00   7.180698982232776e+00   3.444814200000000e+00  4.06029145e+00  -1.72998329e+00  -3.52995170e-01
C     6.164387105400000e+00   7.789150272710207e+00   3.425880600000000e+00 -2.99570939e+00   2.10151929e+00  -3.47701930e-01
C     6.225007026299999e+00   6.364165924944828e+00  -2.106597000000008e-01 -2.93271407e+00   1.03818251e+00  -1.02998586e+00
C     7.370988829400000e+00   7.072370875140772e+00  -3.498285000000010e-01  4.38654535e+00  -9.70401660e-01   8.48257490e-01
C     7.339343652399999e+00   7.125351165663931e+00   3.253492200000000e+00  8.41668430e-01  -1.25331426e+00   1.88260220e+00
C     8.548939611900000e+00   7.840720004092176e+00   3.333956100000000e+00  1.78773961e+00   2.16547735e+00   3.27644040e-01
C     8.682768750999999e+00   6.377158456340672e+00  -1.950743999999993e-01 -2.41156402e+00  -2.44627366e+00  -1.87424400e-02
C     9.838657537000000e+00   7.105552274404585e+00   4.447410000000000e-02  2.55883029e+00   5.44026760e-01   1.21962740e-01
C     9.822899975199999e+00   7.251135230319782e+00   3.347944800000000e+00  1.59918793e+00  -3.83724968e+00  -1.02642340e-01
C     1.112762679230000e+01   7.802746853707405e+00   3.271141800000000e+00 -7.60914680e-01   1.17366304e+00   1.95783837e+00
C     1.112698263850000e+01   6.369102156123107e+00   3.661197000000000e-01 -2.25840841e+00   2.93373770e+00  -2.29392249e+00
C     1.231716815270000e+01   7.220927199895208e+00   1.561125000000000e-01  1.77993266e+00  -4.32379604e+00  -1.73317660e-01
C     1.240494276010000e+01   7.015487829877728e+00   3.464135100000000e+00 -2.00232248e+00   8.75024490e+00  -1.89592824e+00
C     1.358836170140000e+01   7.965126640967497e+00   3.324129300000000e+00 -1.67862581e+00  -4.89788190e+00   2.59082594e+00
