52
Lattice="8.88768389401873 1.33226762955019e-15 0 4.44384194700937 7.69696003302603 0 0 0 30 " PBC="1 1 1" Properties=species:S:1:pos:R:3:force:R:3 Energy="-419.03493365"
C     1.269253220810609e+01   6.979593041277560e+00  -1.499850000000009e-01 -7.81751540e-01  -2.95353800e-01  -3.85681400e-02
C     8.933312730200759e+00   6.727963408219996e+00  -3.431594999999987e-01 -3.41250350e-01  -1.88064570e-01  -1.27097820e-01
C     1.028321322053629e+01   6.345636392038623e+00  -2.742699000000002e-01  4.24320390e-01  -6.60950880e-01  -5.37926800e-02
C     1.062787209053212e+01   4.968860985437244e+00  -2.789222999999978e-01  5.89331020e-01  -5.82160530e-01   1.71050570e-01
C     6.531408026322071e+00   6.150029082559415e+00  -2.327264999999983e-01  2.66368500e-02   1.32214292e+00  -2.84147120e-01
C     7.898226978398164e+00   5.772032914878121e+00  -3.892415999999983e-01 -3.84005990e-01  -2.09357803e+00   9.10808690e-01
C     8.226900593435870e+00   4.350887997335806e+00  -3.372692999999991e-01  1.10164330e-01   8.73406240e-01  -1.52012270e-01
C     9.614775668468802e+00   3.948422347053540e+00  -3.608904000000024e-01 -9.48165000e-01   2.91533044e+00   4.52717230e-01
C     9.936094103013474e+00   2.625512344921309e+00  -2.894837999999993e-01  1.14948487e+00  -2.70858859e+00   6.37846700e-02
C     4.131629567519363e+00   5.603742732302186e+00  -9.932249999999954e-02 -1.03674730e-01  -6.26926430e-01   1.10151200e-02
C     5.484606396301227e+00   5.195344034319994e+00  -1.086483000000023e-01  9.91514620e-01  -5.17716370e-01  -1.93901720e-01
C     5.834416390118092e+00   3.806367714557461e+00  -9.239999999999782e-02  8.00402200e-02  -3.67111820e-01  -1.14523190e-01
C     7.189369617582789e+00   3.363787201930041e+00  -2.049605999999997e-01  6.97080010e-01   2.19940799e+00  -1.15242800e-02
C     7.571311299439378e+00   2.026823166539832e+00  -1.804743000000002e-01 -1.09321366e+00  -1.77071353e+00  -4.38038500e-01
C     8.925090952713553e+00   1.628472849876805e+00  -2.650457999999993e-01  2.16753420e-01   1.84428860e-01   4.47031950e-01
C     3.124980937921952e+00   4.576849500206924e+00  -1.265447999999978e-01 -1.17192228e+00   1.28451631e+00  -1.17173550e-01
C     3.446935064032852e+00   3.216984622669857e+00  -7.331669999999946e-02  8.31242300e-02  -1.38362514e+00  -5.94002050e-01
C     4.826965691510876e+00   2.814646895863288e+00  -5.791169999999823e-02 -9.86712370e-01  -5.44021210e-01  -1.55585610e-01
C     5.153747785241370e+00   1.419173572139431e+00  -1.530389999999997e-01  6.09751690e-01  -2.02356620e-01  -2.40365270e-01
C     6.523324407867220e+00   1.029427687093941e+00  -1.922703000000006e-01  8.73198400e-02   1.87985500e-02   4.57755120e-01
C     1.128211330066414e+01   7.335972912471401e+00  -1.860143999999977e-01  1.82607360e+00   8.05276010e-01  -1.97436010e-01
C     2.415770513879963e+00   2.193104981335139e+00  -2.112738000000007e-01  1.34542074e+00   1.74223635e+00   3.48443130e-01
C     2.827971604246961e+00   8.449633436197652e-01  -2.361450000000005e-01 -2.06109072e+00  -1.24532149e+00  -2.58290510e-01
C     4.161174180666444e+00   3.794543567589775e-01  -2.748074999999979e-01  1.30932830e-01   2.84910630e+00   5.91444310e-01
C     4.110801322809871e-01   2.599314971763201e-01  -1.957260000000005e-01 -1.07655524e+00  -6.72287500e-02  -1.55053240e-01
C     6.210274900046131e+00   7.564729797286214e+00  -2.401898999999972e-01  5.63000320e-01  -9.30102570e-01   1.69738840e-01
C     6.450058834347714e-01   7.478387916636083e-01   3.717809400000000e+00 -2.11310420e-01  -1.45396666e+00  -4.77129820e-01
C     3.023122300678144e+00   1.589791700276440e-01   3.837574200000000e+00  9.96145240e-01  -5.84987600e-02  -5.83142520e-01
C     4.401979087840718e+00   5.791723816814071e-01   3.737296500000000e+00  7.17945250e-01  -2.02792086e+00  -3.54632120e-01
C     9.906392221917908e+00   7.261669770034594e+00   3.562571400000000e+00 -1.07341995e+00   1.54126953e+00  -1.53006400e-02
C     6.826692298573547e+00   7.359833180685999e-04   3.467412000000000e+00 -1.12639808e+00  -1.00459118e+00   4.86751140e-01
C     1.224010714803165e+01   6.663281234911890e+00   3.485943600000000e+00  1.24596934e+00   1.80402380e-01  -1.84396400e-02
C     4.723745022325413e+00   7.039673587031732e+00   3.592249500000000e+00  7.50639420e-01   1.10421319e+00   4.00664370e-01
C     5.772900020918027e+00   6.077104850511983e+00   3.628299600000000e+00 -3.54452340e-01  -3.77146590e-01  -1.31781480e-01
C     7.145402780664143e+00   6.479748300570944e+00   3.694778700000000e+00  2.28719400e-02  -1.27856000e-01  -4.29684000e-02
C     8.194902976892797e+00   5.507559749466500e+00   3.574902000000000e+00 -1.52885526e+00  -5.62589300e-02  -7.61053000e-03
C     9.541295854402204e+00   5.891696782768529e+00   3.515367900000000e+00  7.61620060e-01  -6.14082020e-01   4.27779680e-01
C     1.053745279401734e+01   4.852368726896799e+00   3.542998500000000e+00  1.34664688e+00   1.30032319e+00  -4.10529170e-01
C     1.191985478941301e+01   5.282127874415047e+00   3.502003500000000e+00 -9.03206660e-01  -8.50666820e-01   5.16815940e-01
C     4.052201846639423e+00   4.277907346571354e+00   3.604972800000000e+00  3.24069000e-02   7.47159510e-01  -2.40395760e-01
C     5.420380126042359e+00   4.691599013057377e+00   3.568242000000000e+00  3.86546700e-01  -5.47519500e-02   2.13237010e-01
C     6.463979966685981e+00   3.713042305102512e+00   3.547849500000000e+00 -5.97798650e-01   6.88392130e-01  -3.41621360e-01
C     7.824677926946758e+00   4.132674485339688e+00   3.517586400000000e+00  6.39893950e-01  -9.67837520e-01   2.79997380e-01
C     8.845423266196587e+00   3.116653440195601e+00   3.568057500000000e+00  5.94907650e-01   6.54566700e-02   2.41153900e-02
C     1.023180347773222e+01   3.475543751872828e+00   3.623336100000000e+00 -1.20049092e+00   7.23766500e-01   1.86301720e-01
C     2.350821675445934e+00   2.497689006672699e+00   3.794070600000000e+00  2.56668770e-01   4.22457340e-01  -4.39117540e-01
C     3.711263670400135e+00   2.901091223051417e+00   3.730318500000000e+00  4.05271820e-01   3.41280240e-01  -1.31227380e-01
C     4.763201802761937e+00   1.934602193879588e+00   3.688780500000000e+00 -8.04803260e-01   3.42613310e-01  -1.85915140e-01
C     6.101227814675156e+00   2.346226456901552e+00   3.508619400000000e+00  1.69200553e+00  -4.90646970e-01   7.12635530e-01
C     7.174647967817883e+00   1.373859644202814e+00   3.511215900000000e+00 -1.21455420e+00  -5.22761130e-01  -2.36935500e-01
C     8.538915444076382e+00   1.724838250665203e+00   3.588327300000000e+00 -1.02720483e+00   1.37468661e+00  -5.16586000e-03
C     1.997174955581959e+00   1.133254443965821e+00   3.843456600000000e+00  1.94366450e-01  -2.17360030e-01  -1.41010510e-01
