64
Lattice="9.86 0 0 4.93 8.53901048131456 0 0 0 30 " PBC="1 1 1" Properties=species:S:1:pos:R:3:force:R:3 Energy="-511.80605363"
C     5.029061053600000e+00   7.812827582529570e+00   2.763123000000000e-01  6.23174000e-03   3.54899729e+00  -6.03732960e-01
C     1.362760657200000e+00   4.332249889007040e-02   2.254878000000000e-01 -1.73144597e+00  -1.72703496e+00  -2.35567820e-01
C     9.809143894800000e+00   7.461124355901215e-01   3.468213300000000e+00 -1.31912340e+00  -2.72933282e+00   6.67869070e-01
C     1.122362370300000e+00   1.458655544670324e+00   3.392689800000000e+00  2.22666885e+00  -1.70644947e+00   3.68684290e-01
C     7.508736233900000e+00   7.877847963219635e+00   2.933844000000000e-01  2.73002510e-01  -2.42062071e+00   1.37996000e-02
C     8.722877012500000e+00   8.534114809121501e+00   1.576059000000000e-01  1.14992038e+00   1.47459534e+00  -1.38131887e+00
C     2.353813611400000e+00   7.549615829307552e-01   3.551012400000000e+00  6.76940840e-01  -2.13838064e+00   5.09509990e-01
C     3.594135450800000e+00   1.421661050276667e+00   3.461230800000000e+00  2.93981240e-01   5.75018300e-01  -6.37526660e-01
C     9.965052729099998e+00   7.842945953344102e+00  -5.592899999999901e-03  4.94207900e-02   6.99689400e-02   1.33887336e+00
C     6.259466838900000e+00   5.652884710833360e-02   1.680888000000000e-01 -1.40250990e-01  -4.13426769e+00  -1.12362746e+00
C     4.838212668400000e+00   7.092286921623904e-01   3.482236200000000e+00 -1.18480643e+00  -1.85717189e+00   5.50983930e-01
C     6.030281196100001e+00   1.382760136403246e+00   3.442242000000000e+00  3.22885113e+00   1.50233042e+00  -3.06404450e-01
C     1.240099540770000e+01   7.741222258517748e+00   1.308699000000000e-01  5.27644230e-01   5.25247552e+00  -4.18812120e-01
C     8.718661172299999e+00   5.710975599128800e-03   1.400739000000000e-01 -2.39910410e-01  -2.92975070e-01   7.97653800e-01
C     7.333658129900000e+00   7.297237689461720e-01   3.440842200000000e+00 -6.13710210e-01  -1.37482177e+00  -1.34606160e-01
C     8.612723557499999e+00   1.423224799265870e+00   3.370285200000000e+00 -4.13510919e+00   7.97466470e-01   1.10195406e+00
C     1.334564311000000e+00   1.403039859342722e+00  -1.320572999999996e-01 -1.72710998e+00   5.85269060e-01   1.12688730e+00
C     2.525312979100000e+00   2.091270868564477e+00  -3.109134000000005e-01  2.49771296e+00   9.76334780e-01  -1.57792800e-01
C     1.098050218270000e+01   2.803249805222266e+00   3.161150400000000e+00  2.20134680e-01   3.90745901e+00  -5.68393770e-01
C     2.388225159300000e+00   3.560517945663879e+00   2.981173500000000e+00 -9.27303100e-02  -1.74328700e+00   1.47841057e+00
C     3.807395813200000e+00   1.422347928279678e+00  -1.168461000000001e-01 -1.85594645e+00  -7.63552270e-01   6.22755250e-01
C     4.995010135199999e+00   2.148723807386957e+00  -3.107819999999961e-02  1.03421050e+00  -5.77753900e-01   4.01223300e-01
C     3.616445623500000e+00   2.837068556228306e+00   3.221503500000000e+00  2.18650750e-01   2.12678940e-01   3.23311060e-01
C     4.881170617800000e+00   3.539823909935913e+00   3.371621700000000e+00 -2.41909212e+00   7.30241910e-01  -6.55992390e-01
C     6.253627007400000e+00   1.437717122462421e+00   2.171382000000000e-01 -2.72375387e+00  -5.10403400e-02  -5.93946530e-01
C     7.422264231100000e+00   2.116800460537163e+00   2.540556000000000e-01  3.61962569e+00   2.08109561e+00  -4.89736150e-01
C     6.066080539000000e+00   2.805276710139904e+00   3.399014700000000e+00  3.87440360e-01   5.87291440e-01   3.02540150e-01
C     7.298930421100000e+00   3.528431930664441e+00   3.396616500000000e+00 -1.38021699e+00   1.78147019e+00   1.40905780e+00
C     8.691231736900001e+00   1.492422207712436e+00   1.153308000000000e-01  6.94583960e-01  -3.38828069e+00   8.76115090e-01
C     9.957139043800000e+00   2.163785255632000e+00  -1.729710000000040e-02 -1.00922121e+00  -7.81417180e-01  -1.79995201e+00
C     8.495224895499998e+00   2.862610785936501e+00   3.445228200000000e+00  3.05823921e+00  -1.83021329e+00  -1.53990178e+00
C     9.729570588900000e+00   3.529690239248773e+00   3.244091700000000e+00  6.65985470e-01   2.56277982e+00   1.77487170e-01
C     2.536135906700000e+00   3.515859091633689e+00  -5.326226999999975e-01  6.02617220e-01   3.25576650e-01   6.31775380e-01
C     3.755817413700000e+00   4.267553819935006e+00  -3.340017000000017e-01  1.45180560e+00   7.64974930e-01   3.40023620e-01
C     1.229206735350000e+01   4.959475304096113e+00   2.985852300000000e+00 -2.27297128e+00   2.01053555e+00   6.74441400e-02
C     3.628374645900000e+00   5.730416278898511e+00   3.203095500000000e+00 -8.06540030e-01  -2.24757217e+00   5.85298020e-01
C     4.972971654800000e+00   3.548965262215173e+00  -8.246579999999781e-02  1.96032077e+00   1.15317117e+00   1.02013680e-01
C     6.298276637000000e+00   4.244419676572275e+00   1.364679000000000e-01 -3.35586984e+00   2.17857634e+00   4.77363740e-01
C     4.817761401499999e+00   4.983651121347298e+00   3.437148300000000e+00  1.04562104e+00   3.28124420e-01  -6.92206180e-01
C     6.023453195400000e+00   5.728931259585934e+00   3.601010400000000e+00  2.17064697e+00  -2.69153255e+00   6.18516990e-01
C     7.493945642299998e+00   3.536036090277090e+00   2.623767000000000e-01 -1.53701720e-01   2.40640010e-01  -1.11904383e+00
C     8.739047856199999e+00   4.229009153578810e+00   2.031750000000000e-02 -1.48505977e+00   1.08535773e+00   4.24802970e-01
C     7.309030758600001e+00   4.968386871603355e+00   3.596723700000000e+00 -1.64693908e+00   9.84774180e-01  -1.01323463e+00
C     8.513515392700000e+00   5.755863554810169e+00   3.507941400000000e+00  6.27408940e-01  -4.15326835e+00  -1.21704740e-01
C     9.880581270999999e+00   3.551957331487364e+00  -3.351231000000006e-01  3.48257149e+00  -1.04694756e+00   7.53138350e-01
C     1.117560801730000e+01   4.228278128891617e+00  -5.877522000000006e-01 -2.00978241e+00   5.36597390e-01   1.11077637e+00
C     9.728716219899999e+00   5.032807813757724e+00   3.229360500000000e+00  1.34674335e+00  -2.03110463e+00  -2.92889530e-01
C     1.099928262330000e+01   5.704409697800414e+00   3.027234600000000e+00 -1.46984000e-02  -8.92076150e-01   1.13477916e+00
C     3.842335906400000e+00   5.744671217603718e+00  -1.825094999999983e-01 -1.80021578e+00  -2.17448990e+00   3.84143890e-01
C     5.009664264400000e+00   6.435127236786248e+00   2.339547000000000e-01  9.11162060e-01  -1.83920750e+00  -1.05598071e+00
C     1.342701862670000e+01   7.116511496624931e+00   3.401541300000000e+00  2.22522857e+00   9.62212280e-01   5.43491200e-01
C     4.828792375099999e+00   7.828539105642456e+00   3.647145000000000e+00 -3.70150400e-02   7.88471440e-01  -1.12889315e+00
C     6.244109001499999e+00   5.728941421008406e+00   2.752332000000000e-01  2.43283903e+00  -1.98061552e+00  -5.72094700e-02
C     7.553151195499999e+00   6.400151022909644e+00   3.555423000000000e-01 -1.93398437e+00   2.75633060e-01  -6.64786580e-01
C     6.074923184199999e+00   7.117727195546967e+00   3.743535300000000e+00 -5.63654980e-01   1.05907211e+00  -2.91928770e-01
C     7.325651415499999e+00   7.829222397261065e+00   3.785043900000000e+00 -4.36660890e-01   1.41381323e+00  -1.21774212e+00
C     8.774241992299999e+00   5.643759838844327e+00   1.291947000000000e-01 -1.41089603e+00   1.94742550e+00  -5.01930870e-01
C     9.956840532299999e+00   6.413087282226425e+00  -1.138022999999997e-01  9.47256170e-01  -1.57380642e+00  -2.67191650e-01
C     8.571497024099999e+00   7.106198079767187e+00   3.638678400000000e+00 -1.39093808e+00   2.69361505e+00   2.13163210e-01
C     9.802051941900000e+00   7.792774826488652e+00   3.506107500000000e+00 -1.41740907e+00   1.67349722e+00  -3.46752570e-01
C     1.116096986130000e+01   5.630943638014895e+00  -4.146681000000001e-01  1.43846517e+00   2.68443776e+00   9.91981610e-01
C     1.244646031140000e+01   6.408218936181462e+00  -1.913958000000022e-01 -1.64354874e+00  -2.38116370e+00  -6.05297180e-01
C     1.098707431640000e+01   7.113453933142357e+00   3.252608700000000e+00  1.25229740e+00  -4.48725870e-01   3.91701320e-01
C     1.221599503780000e+01   7.823024014943737e+00   3.404512800000000e+00  2.40720560e-01   1.21505142e+00  -8.50296830e-01
