52
Lattice="8.88768389401873 1.33226762955019e-15 0 4.44384194700937 7.69696003302603 0 0 0 30 " PBC="1 1 1" Properties=species:S:1:pos:R:3:force:R:3 Energy="-418.79204375"
C     1.291279674456691e+01   7.122572540490842e+00   5.153370000000000e-02 -1.13380047e+00   1.03954579e+00  -2.65647210e-01
C     9.123265776402132e+00   7.003050835452190e+00  -4.352279999999809e-02 -1.21641528e+00  -4.72296400e-02  -3.11721040e-01
C     1.045798561381889e+01   6.602190540123379e+00  -1.396946999999997e-01  2.51383250e+00  -7.60375130e-01   3.76893790e-01
C     1.089029446681994e+01   5.209091266751177e+00  -1.505849999999995e-01 -2.38528622e+00   7.27884900e-02   4.66657510e-01
C     6.700399292271203e+00   6.357389419095632e+00   1.362312000000000e-01  1.75734831e+00   6.56980670e-01  -8.04947550e-01
C     8.085805902029902e+00   6.030930017596011e+00  -8.321400000000168e-02 -1.67258410e-01  -1.61541877e+00   6.91764250e-01
C     8.451607772091052e+00   4.627315465309222e+00  -1.624034999999999e-01 -2.81183780e-01   3.69198040e-01   3.95233980e-01
C     9.816609192794608e+00   4.223102682069745e+00  -1.245831000000024e-01  3.68654330e-01   5.87193850e-01  -2.81843100e-02
C     1.011605952553244e+01   2.847983045510020e+00   3.930180000000000e-02  1.78948945e+00  -3.00245320e-01  -1.98788280e-01
C     4.380052419583992e+00   5.740806040158010e+00  -1.753889999999814e-02 -1.07830397e+00   1.26738226e+00   8.70736790e-01
C     5.707990643123987e+00   5.340315429819442e+00   5.993070000000000e-02  1.03756230e+00   2.07789844e+00  -1.76182440e-01
C     6.081907812962735e+00   4.022998500662610e+00  -2.784959999999970e-02 -1.46082870e-01  -2.14477788e+00   3.98205140e-01
C     7.434202156494864e+00   3.608717016129489e+00  -8.998560000000211e-02  7.14021390e-01   1.38326031e+00  -1.22695170e-01
C     7.802109741093014e+00   2.253382492296480e+00  -5.289300000000097e-02 -1.24771438e+00  -1.28806269e+00   1.28485230e-01
C     9.142865204623293e+00   1.827611139769775e+00   4.243020000000000e-02 -5.23814200e-01   3.33722190e-01   2.46837410e-01
C     3.347518766221417e+00   4.801822867349390e+00  -1.847069999999817e-02 -3.87586950e-01  -1.26080213e+00  -7.88249690e-01
C     3.684325367478581e+00   3.391417133288932e+00   1.880400000000000e-02 -1.04298770e+00   1.41620761e+00   7.43242200e-01
C     5.058777240246526e+00   3.034112395377886e+00   6.852269999999999e-02 -6.91391130e-01  -3.19775020e-01  -1.08105111e+00
C     5.353880073535748e+00   1.663647726305104e+00  -2.121059999999986e-02  1.73825562e+00  -9.57619640e-01   7.08099340e-01
C     6.773167778502605e+00   1.250572432378285e+00  -3.869820000000246e-02 -1.40166689e+00   5.54674670e-01  -6.43451500e-02
C     1.152084675537429e+01   7.566665197885757e+00  -3.953279999999992e-02  6.19092840e-01  -6.18024870e-01  -1.60818370e-01
C     2.606450083794353e+00   2.458080065510317e+00   1.241220000000000e-01  7.23629960e-01  -7.62836780e-01  -4.30094850e-01
C     2.958615580467566e+00   1.061376459695266e+00   1.735833000000000e-01 -9.21224100e-02   1.42595660e-01  -2.16784200e-02
C     4.319933545036638e+00   6.807238401988183e-01   7.097760000000000e-02  8.05490520e-01   2.72065600e-01  -4.01312850e-01
C     5.620585070834631e-01   4.446688518227603e-01   1.695939000000000e-01  1.51043896e+00  -3.77943940e-01  -3.56497340e-01
C     1.964063577475460e+00   4.741635256881200e-02   2.292882000000000e-01 -1.78954810e+00   3.11855200e-01  -4.43837930e-01
C     4.489040264852334e-01   5.279712799266433e-01   3.466487700000000e+00 -5.10686940e-01   1.21491093e+00  -7.80225700e-02
C     7.257424793369960e+00   7.610797103670567e+00   3.379556400000000e+00  6.54082070e-01   1.67417514e+00   1.59589640e-01
C     4.192001556563005e+00   2.869396681039882e-01   3.312000900000000e+00 -2.63238050e-01   1.09130105e+00  -2.43759900e-02
C     9.661443032147188e+00   7.005058202628013e+00   3.185380800000000e+00 -9.08298000e-03   5.50696350e-01   1.28706390e+00
C     1.103738514781495e+01   7.422931781437536e+00   3.339805800000000e+00 -9.24660180e-01  -3.81865560e-01  -5.66918940e-01
C     1.206942971070152e+01   6.466095048021727e+00   3.413538000000000e+00  2.12547240e-01  -3.37519100e-01  -1.76418030e-01
C     4.547115058722841e+00   6.862330317038110e+00   3.504941100000000e+00  8.29816510e-01  -1.19528273e+00  -2.81208290e-01
C     5.599875212935237e+00   5.845977455947131e+00   3.496005000000000e+00 -8.07867830e-01   1.22023053e+00   4.93705480e-01
C     6.954659308325614e+00   6.250226337929148e+00   3.409905000000000e+00 -7.35846340e-01  -6.44659270e-01  -2.04881920e-01
C     7.960866618657535e+00   5.242147939779220e+00   3.312741600000000e+00 -1.38376039e+00   4.58668560e-01   4.64528490e-01
C     9.291415111026623e+00   5.625238725304371e+00   3.225978300000000e+00  1.54534212e+00   1.13873448e+00  -3.34237810e-01
C     1.033852074304841e+01   4.691836772152704e+00   3.240872100000000e+00  9.96757270e-01  -9.58843120e-01   4.43653020e-01
C     1.172444546081466e+01   5.096865894972962e+00   3.345316800000000e+00 -3.28365500e-02  -8.21990070e-01   3.43105480e-01
C     3.883439571894504e+00   4.114863719830268e+00   3.473874300000000e+00 -4.16916640e-01  -2.69145930e-01   8.18719500e-02
C     5.258612591809627e+00   4.490839127625287e+00   3.584143200000000e+00 -8.15672820e-01  -1.21912924e+00  -1.51712391e+00
C     6.238966429569082e+00   3.439646977563315e+00   3.423678600000000e+00 -2.51972800e-01   1.67644820e+00   1.50516083e+00
C     7.582260260624770e+00   3.888261906854256e+00   3.410366100000000e+00  1.09480972e+00  -1.49937106e+00  -7.72283170e-01
C     8.623024530152804e+00   2.895996990055561e+00   3.367809600000000e+00  4.40229930e-01   1.52551940e-01   5.17690600e-02
C     1.001194933005898e+01   3.307866478224081e+00   3.316103100000000e+00 -3.25887170e-01  -2.46546080e-01   5.38527730e-01
C     2.167901275828116e+00   2.338168355506945e+00   3.442146300000000e+00 -2.35249340e-01  -2.62054000e-02  -6.33528600e-01
C     3.553860788863980e+00   2.723476096429537e+00   3.442673700000000e+00 -1.25872266e+00  -1.83536330e-01   1.08978140e-01
C     4.522273623384316e+00   1.692098615420796e+00   3.414473100000000e+00  3.99961970e-01  -4.24485040e-01   2.24491520e-01
C     5.883360108721227e+00   2.073069042396882e+00   3.481203000000000e+00  5.16159890e-01  -7.62699800e-02  -1.22187538e+00
C     6.913617802744946e+00   1.090422246851676e+00   3.373520400000000e+00  3.82122800e-01   9.16467510e-01   6.74519000e-01
C     8.282744620216233e+00   1.512107283298454e+00   3.410917800000000e+00  3.09317430e-01  -2.05031010e-01   4.23581100e-02
C     1.804427221690769e+00   9.674208231530605e-01   3.452424300000000e+00  6.46620530e-01  -1.61748632e+00   2.32070000e-04
