64
Lattice="9.86 0 0 4.93 8.53901048131456 0 0 0 30 " PBC="1 1 1" Properties=species:S:1:pos:R:3:force:R:3 Energy="-513.83345724"
C     4.931518390699999e+00   8.242841988879897e+00  -2.981826000000005e-01  6.57692270e-01  -2.38738117e+00   6.20790930e-01
C     1.238102452000000e+00   3.576918054581872e-01  -2.260253999999975e-01  9.79780980e-01   1.46100994e+00  -7.18532380e-01
C     9.822540430299998e+00   3.004113546474040e-01   3.559852200000000e+00  3.09888230e-01   9.30801400e-02   4.70031000e-03
C     1.209249725600000e+00   1.001219643185361e+00   3.573672300000000e+00 -4.39567930e-01   2.46378092e+00  -3.86035950e-01
C     7.423338872500000e+00   8.176660900495287e+00  -2.467587000000009e-01  1.23720190e-01   2.67774231e+00   2.87937370e-01
C     3.756565984900000e+00   4.197317299303128e-01  -1.724052000000000e-01 -1.41405864e+00  -2.36272584e+00   4.85832840e-01
C     2.451678597700000e+00   3.318721432994968e-01   3.392261400000000e+00 -1.87927810e+00  -5.83018260e-01   6.47297170e-01
C     3.640954970600000e+00   1.057263730668746e+00   3.525123300000000e+00  1.59602391e+00  -5.61199100e-01  -8.25130770e-01
C     9.901093028999998e+00   8.237872370170642e+00  -8.793329999999955e-02  8.92553790e-01  -5.92126600e-02  -8.27309910e-01
C     6.242415102799999e+00   4.096183820881152e-01  -1.460796000000002e-01 -2.57061287e+00   6.72696100e-01  -3.24112000e-03
C     4.891045802199999e+00   3.722226395920032e-01   3.447452400000000e+00  7.68759310e-01  -2.69140091e+00   3.81901560e-01
C     6.160969678700000e+00   1.007822091478602e+00   3.448843500000000e+00 -1.44044996e+00   1.55163936e+00  -7.26934400e-02
C     1.236490021550000e+01   8.262669912774877e+00  -9.206490000000045e-02 -3.43600340e-01  -2.47255381e+00   2.04139370e-01
C     8.642326432699999e+00   4.041538423314392e-01  -2.195928000000009e-01  6.37667830e-01  -1.21622575e+00   1.51491300e-01
C     7.388477314199999e+00   3.189023256715296e-01   3.442155000000000e+00 -6.10077790e-01   8.57073600e-01   1.12965188e+00
C     8.583952028199999e+00   1.019166252291387e+00   3.643227900000000e+00  1.46265274e+00   1.51158200e+00  -1.49675584e+00
C     1.241223388500000e+00   1.820547518603414e+00  -1.737986999999990e-01  1.35445769e+00  -1.29988161e+00   1.90566153e+00
C     2.503979045000000e+00   2.487874005488872e+00   1.293345000000000e-01 -1.32279602e+00   9.63434760e-01  -1.63563563e+00
C     1.106176361920000e+01   2.512966229344771e+00   3.659976300000000e+00  8.13714210e-01  -2.83373229e+00   1.23200840e-01
C     2.461338784800000e+00   3.196801612141738e+00   3.705684300000000e+00 -1.28919882e+00  -1.54596999e+00  -5.80583880e-01
C     3.752958358800000e+00   1.811967435483005e+00  -2.642699999999110e-03 -1.98225190e+00  -3.47500720e-01  -4.63285770e-01
C     4.926043625700000e+00   2.515115925233111e+00  -1.301303999999988e-01  3.24982454e+00   4.07061890e-01   1.33747680e-01
C     3.684462417800000e+00   2.463028559035845e+00   3.572388000000000e+00 -1.89280021e+00  -2.20065410e-01   2.11768690e-01
C     4.881949409899999e+00   3.113877488178257e+00   3.432132000000000e+00  2.06394416e+00   2.65765754e+00   7.15532470e-01
C     6.208562468999999e+00   1.833021219722493e+00  -2.805411000000007e-01 -1.30513713e+00  -1.09436073e+00   9.15468790e-01
C     7.443170191900000e+00   2.488640894020081e+00  -2.685461999999994e-01 -1.66482536e+00   1.96951737e+00   4.55801530e-01
C     6.123684088699999e+00   2.421761997699044e+00   3.457711500000000e+00  1.67251923e+00   1.39067408e+00  -7.44390540e-01
C     7.406444156900000e+00   3.198847986003270e+00   3.428941800000000e+00 -2.58254111e+00  -5.50121060e-01   8.04153070e-01
C     8.617951871799999e+00   1.770852441582224e+00  -1.760234999999994e-01  2.60338318e+00   2.61299186e+00  -6.89145580e-01
C     9.880212802799997e+00   2.526312531944801e+00  -1.120781999999991e-01 -1.67062940e-01  -1.39488571e+00   4.40952000e-02
C     8.594149092300000e+00   2.480583996071782e+00   3.570837000000000e+00  9.87808160e-01  -8.21657710e-01   1.84043970e-01
C     9.838755348199999e+00   3.217049313791914e+00   3.635308800000000e+00 -2.89244840e-01  -1.81553348e+00   5.23273240e-01
C     2.469242955200000e+00   3.936871502355792e+00   1.598919000000000e-01  1.65457590e+00  -1.19980873e+00   1.19821590e-01
C     3.728718485500000e+00   4.630067433831039e+00   2.192940000000000e-02 -3.56368500e-01   1.10635416e+00   1.38368538e+00
C     1.226657954930000e+01   4.574292666738194e+00   3.692538600000000e+00  2.45367844e+00   1.82155176e+00   2.05979600e-02
C     3.666377205799999e+00   5.305153490319883e+00   3.619667100000000e+00 -4.37912390e-01  -1.13559274e+00  -8.68557080e-01
C     4.967726627799999e+00   3.916902001667054e+00  -3.742769999999851e-02 -3.26405030e-01   1.60676444e+00  -6.91176450e-01
C     6.206737037900000e+00   4.676280729329009e+00  -1.425872999999989e-01 -2.66967990e-01  -2.22812098e+00  -4.06242610e-01
C     4.902438391299999e+00   4.598806116463758e+00   3.440781600000000e+00 -1.50768319e+00  -1.42767380e+00   3.81383200e-01
C     6.082134295199999e+00   5.324088233718655e+00   3.342118500000000e+00  2.70038761e+00  -9.72105280e-01   4.09841460e-01
C     7.428804369100000e+00   3.932306291182870e+00  -2.295444000000018e-01  8.34679700e-02  -4.73460300e-01  -2.22155300e-02
C     8.663124870199999e+00   4.597074148968100e+00  -2.174745000000016e-01  7.95880550e-01   2.75181758e+00   8.83883720e-01
C     7.368675821300000e+00   4.632507199905385e+00   3.442761900000000e+00 -4.16836440e-01  -6.27032860e-01  -6.83968880e-01
C     8.597741681899999e+00   5.349040332412576e+00   3.501533400000000e+00  1.52089470e-01  -1.11515616e+00  -1.94247290e-01
C     9.918381405100000e+00   3.922956245487479e+00   2.824530000000000e-02 -2.34772582e+00   6.29007100e-02  -9.30167320e-01
C     1.110499035220000e+01   4.623288057240653e+00   1.954713000000000e-01  9.44341860e-01   1.80752214e+00  -7.34165490e-01
C     9.862472148500000e+00   4.599399577692119e+00   3.692486400000000e+00 -2.27070528e+00   2.08400734e+00  -1.08611318e+00
C     1.107513239880000e+01   5.305708867561502e+00   3.665781300000000e+00 -3.12458250e-01  -4.16906110e-01   8.51281500e-02
C     3.741581989400000e+00   6.088618802573507e+00   7.959390000000000e-02 -8.54792570e-01  -3.79314480e-01  -1.40056331e+00
C     4.949725225800000e+00   6.774162841367522e+00  -2.343083999999998e-01  3.23676300e-02   9.86923840e-01   1.05835845e+00
C     1.352832588690000e+01   6.700897362938178e+00   3.527388600000000e+00 -4.52158710e-01   1.72593882e+00   2.42328600e-01
C     4.904100639399999e+00   7.403604727406888e+00   3.437095800000000e+00 -8.48966440e-01   1.31557188e+00   3.89890320e-01
C     6.216403831200000e+00   6.069653831077638e+00  -2.274254999999989e-01 -2.71960356e+00   3.30747330e-01  -7.63566200e-02
C     7.390716668100000e+00   6.785676074587810e+00  -2.741517000000009e-01  3.15266129e+00  -5.24259600e-01  -2.74492500e-01
C     6.127609453300000e+00   6.729548475581932e+00   3.338019900000000e+00 -9.89693970e-01  -1.02998650e-01  -3.32903320e-01
C     7.327088658400000e+00   7.438033846882039e+00   3.251384700000000e+00  1.40296319e+00   1.12877585e+00   6.12708730e-01
C     8.656982238099999e+00   6.072731546624944e+00  -2.559305999999992e-01  4.10813410e-01  -5.49080460e-01   7.24196830e-01
C     9.904285253299999e+00   6.813254687515276e+00  -1.034612999999993e-01 -6.91316570e-01  -1.28085414e+00   3.37968630e-01
C     8.549913977099999e+00   6.749540690038547e+00   3.310111200000000e+00  2.76671348e+00  -8.95523600e-02   1.41404976e+00
C     9.851189596999998e+00   7.436360542388378e+00   3.492715200000000e+00 -2.17883293e+00   9.20162460e-01  -1.25285642e+00
C     1.113811960710000e+01   6.074360619044318e+00   1.125003000000000e-01 -1.43363366e+00   4.46570460e-01  -2.98196970e-01
C     1.232659377040000e+01   6.827323475792020e+00   1.043895000000000e-01  2.09940081e+00  -7.45735670e-01  -4.58815280e-01
C     1.106471530880000e+01   6.699392703901498e+00   3.543414900000000e+00  5.17092680e-01   2.73966227e+00   2.96049070e-01
C     1.229759284820000e+01   7.495714691894229e+00   3.530391900000000e+00  2.23352810e-01  -4.59339195e+00  -1.68989030e-01
