32
Lattice="9.86 0 0 4.93 8.53901048131456 0 0 0 30 " PBC="1 1 1" Properties=species:S:1:pos:R:3:force:R:3 Energy="-255.87474868"
C     4.943528067900000e+00   8.084889763943794e+00  -4.313853000000023e-01  3.31538872e+00   1.50666000e+00  -6.71077470e-01
C     1.321608665400000e+00   2.677849056746864e-01  -5.121962999999994e-01 -1.96122002e+00  -2.79506390e-01   1.54873756e+00
C     7.456213492899999e+00   8.112858268089775e+00  -3.448727999999974e-01  1.06328912e+00  -3.91180970e-01  -1.04848343e+00
C     3.780087064200000e+00   3.171501207210336e-01  -3.263831999999987e-01 -8.96405060e-01  -2.05826734e+00  -1.56880261e+00
C     9.925678248800001e+00   8.124461160920104e+00  -5.065065000000004e-01  1.29782944e+00   6.38580210e-01   1.47775714e+00
C     6.253083179100000e+00   2.791514386949288e-01  -4.574931000000007e-01 -1.41306090e-01   1.77342401e+00   2.18798220e-01
C     1.242582909950000e+01   8.134802500342118e+00  -3.559604999999983e-01 -2.37045036e+00  -1.97634743e+00  -1.49310401e+00
C     8.689455162100000e+00   2.626139370983128e-01  -4.341332999999992e-01  6.42166570e-01   2.66174096e+00   2.05974540e-01
C     1.312213071400000e+00   1.670728786539613e+00  -4.539465000000007e-01  1.26914480e-01   1.87014706e+00   1.34822530e-01
C     2.570907048800000e+00   2.412364560495490e+00  -4.458812999999999e-01 -1.77595739e+00   7.85989860e-01   3.09330070e-01
C     3.771423920300000e+00   1.709681446816543e+00  -4.526810999999995e-01  1.27662275e+00   1.19257000e-01   5.29226440e-01
C     5.018741479000000e+00   2.416395315002469e+00  -4.624578000000028e-01 -1.01804240e-01  -5.26519300e-02   3.31390910e-01
C     6.277128514600000e+00   1.747042264759792e+00  -4.543625999999996e-01 -8.62907240e-01  -1.77986329e+00  -1.69442960e-01
C     7.507965576300000e+00   2.466269540463529e+00  -4.662639000000013e-01 -1.23928784e+00  -2.79062260e+00   5.09197590e-01
C     8.721207418699999e+00   1.728688430243975e+00  -4.660238999999997e-01 -6.55678140e-01  -1.00240095e+00   4.22362300e-01
C     9.919485330699999e+00   2.426516347954099e+00  -3.982215000000018e-01  2.37265655e+00  -9.33676930e-01  -1.31072338e+00
C     2.566472267300000e+00   3.856714017787831e+00  -3.916919999999990e-01 -5.31376120e-01   1.73904840e-01  -7.82653090e-01
C     3.814510394799999e+00   4.603201572108339e+00  -4.553646000000029e-01 -2.60426464e+00  -1.18424247e+00   3.00224100e-02
C     4.983316421700000e+00   3.823929682511338e+00  -4.012515000000008e-01  1.30482186e+00   1.47905140e+00  -6.22737330e-01
C     6.217061641099999e+00   4.545235438756012e+00  -4.121285999999991e-01  1.15739175e+00   2.41707510e-01   2.96261210e-01
C     7.452572687900000e+00   3.827765064458535e+00  -3.756389999999996e-01  9.94223130e-01   1.73194400e+00  -1.13361749e+00
C     8.729691948699999e+00   4.470849898322007e+00  -4.935939000000005e-01 -1.84101587e+00   4.57730164e+00   8.13739650e-01
C     9.948020417199999e+00   3.848614680957446e+00  -5.190903000000020e-01 -1.77818110e-01  -2.04281023e+00   1.00619957e+00
C     1.113343936090000e+01   4.562329683835924e+00  -4.272107999999974e-01  3.35026103e+00  -1.36114042e+00   1.01812700e-02
C     3.769523701100000e+00   6.046138506287079e+00  -5.579721000000006e-01  9.88147650e-01  -3.37567683e+00   1.04077803e+00
C     4.971516466700000e+00   6.706541136524829e+00  -4.524140999999986e-01  2.84359112e+00  -5.75161080e-01  -2.84645690e-01
C     6.292738176399999e+00   5.979236469247641e+00  -4.274276999999991e-01 -5.27445014e+00  -1.37286211e+00  -2.09575130e-01
C     7.440277662300000e+00   6.664596833926232e+00  -4.402188000000002e-01  4.73501218e+00   1.43806380e+00   8.30081890e-01
C     8.743892468599999e+00   5.952726086531224e+00  -4.236632999999976e-01 -6.42857210e-01   6.87370100e-02  -4.99982310e-01
C     9.990585149799999e+00   6.720723493640957e+00  -4.362423000000000e-01 -1.59323054e+00  -2.51629360e+00   1.61880010e-01
C     1.122197713230000e+01   5.933910633108858e+00  -3.741899999999987e-01 -1.81686422e+00   3.17630370e+00  -1.14445488e+00
C     1.242126278560000e+01   6.682463432504059e+00  -4.899443999999988e-01 -9.81423130e-01   1.44989158e+00   1.06255844e+00
