26
Lattice="8.88768389401873 1.33226762955019e-15 0 4.44384194700937 7.69696003302603 0 0 0 30 " PBC="1 1 1" Properties=species:S:1:pos:R:3:force:R:3 Energy="-208.79092225"
C     4.642374142414766e-01   5.308337793618004e-01   3.534773100000000e+00 -1.54221027e+00   2.79157280e-01  -3.67624240e-01
C     7.292567184309151e+00   7.634684542154072e+00   3.443517900000000e+00  1.55064860e-01   1.09093653e+00   6.08701400e-02
C     4.227177231918000e+00   3.718405238973015e-01   3.342330900000000e+00 -7.71655570e-01  -1.32442190e-01   5.77714390e-01
C     9.673529926789458e+00   7.096229002061764e+00   3.254289300000000e+00  1.23811328e+00  -1.74696703e+00  -6.81008020e-01
C     1.107672945795243e+01   7.460331541132106e+00   3.267681000000000e+00 -1.35550657e+00   5.82783200e-02   7.40116240e-01
C     1.207226443746836e+01   6.450900633165706e+00   3.366558300000000e+00 -7.08915700e-02   1.27407860e-01   1.46762100e-01
C     4.521893722696366e+00   6.864344534508362e+00   3.537012900000000e+00  1.43476735e+00  -9.26642630e-01  -4.12039300e-02
C     5.565642209828646e+00   5.848219965251872e+00   3.596858100000000e+00 -1.31831600e-01   1.92462582e+00  -1.09849065e+00
C     6.936990415016799e+00   6.278216948835046e+00   3.468312000000000e+00  5.33952930e-01  -1.17745694e+00  -1.50346800e-02
C     7.995626394824865e+00   5.296210848242738e+00   3.319920300000000e+00 -1.26259747e+00  -7.89069360e-01   3.37745000e-03
C     9.340455484342357e+00   5.662692132810351e+00   3.163929600000000e+00  8.53234280e-01   1.66829147e+00   1.05668306e+00
C     1.038077568075203e+01   4.681512454816463e+00   3.270828000000000e+00 -9.74901100e-01  -6.89269050e-01   1.52447000e-02
C     1.173495145860015e+01   5.057432906316865e+00   3.375202800000000e+00 -2.03453880e-01   4.88258500e-01  -1.61516790e-01
C     3.843422064128791e+00   4.059018580271804e+00   3.489059700000000e+00  6.24679740e-01   5.64198900e-01   1.29638400e-02
C     5.215197144784848e+00   4.505435488686977e+00   3.482329800000000e+00  3.35304270e-01  -1.85377414e+00   1.42274407e+00
C     6.266166475147145e+00   3.512657877380685e+00   3.576939600000000e+00  6.17809990e-01   7.01552080e-01  -2.11156853e+00
C     7.656776957604927e+00   3.903910057504046e+00   3.373285800000000e+00 -9.90973280e-01  -8.05620300e-02   7.27610600e-01
C     8.673249231756007e+00   2.888356756620983e+00   3.355376100000000e+00 -9.24988570e-01   1.34650244e+00   2.80566060e-01
C     1.001691136839640e+01   3.282027706433771e+00   3.370020000000000e+00  8.09010860e-01   7.52570610e-01  -2.41667700e-01
C     2.122416420436410e+00   2.275828828953568e+00   3.472475100000000e+00  1.61283097e+00   1.40592680e+00   2.56258170e-01
C     3.512232343957173e+00   2.671308641343006e+00   3.548793000000000e+00 -6.72051190e-01   1.50053069e+00  -6.86771720e-01
C     4.568627960897308e+00   1.764179414588141e+00   3.480887400000000e+00 -5.08810860e-01  -1.91705295e+00  -5.95026260e-01
C     5.919275328247409e+00   2.149809735105590e+00   3.411762300000000e+00  9.47810320e-01  -4.26051230e-01   1.18429815e+00
C     6.960829935056608e+00   1.144071674622382e+00   3.403530900000000e+00 -4.28004160e-01   1.32227780e-01  -5.79954680e-01
C     8.320343344792674e+00   1.539303875807656e+00   3.443762700000000e+00  3.06745480e-01  -1.18288920e+00   6.85577100e-02
C     1.809342021977842e+00   9.254594600967103e-01   3.509550000000000e+00  3.68551770e-01  -1.11828833e+00   2.61005300e-02
