26
Lattice="8.88768389401873 1.33226762955019e-15 0 4.44384194700937 7.69696003302603 0 0 0 30 " PBC="1 1 1" Properties=species:S:1:pos:R:3:force:R:3 Energy="-207.9896974"
C     1.239317306957622e-01   1.847044116575118e-01   3.818090100000000e+00  1.64397568e+00  -1.55921847e+00  -2.98777470e-01
C     7.025156328722264e+00   7.263159516648400e+00   3.488482200000000e+00 -1.91015997e+00   9.30182800e-01   4.88886240e-01
C     8.372973146535969e+00   7.693265643124800e+00   3.453683100000000e+00  1.04883475e+00  -1.57684300e-01   1.04889618e+00
C     9.409868029564366e+00   6.696587058536103e+00   3.545379000000000e+00 -3.59355740e-01   3.25654755e+00  -4.84645530e-01
C     1.074559457549488e+01   7.157068006257293e+00   3.756790500000000e+00  1.09893550e-01  -1.79703158e+00   4.50522140e-01
C     1.172494845995598e+01   6.130670689296763e+00   3.883674600000000e+00  1.31706449e+00  -7.63389530e-01  -5.15618130e-01
C     4.245146710664233e+00   6.452555171693754e+00   3.927160800000000e+00 -9.48131120e-01   2.96994142e+00  -1.88631900e-01
C     5.303282891624019e+00   5.555639041202696e+00   3.870748500000000e+00 -6.65654500e-01  -2.51071071e+00  -9.42015400e-01
C     6.652642433546481e+00   5.892042222334675e+00   3.610983300000000e+00  4.75906840e-01   1.52608312e+00   3.15747550e-01
C     7.694471314328595e+00   4.960300580431079e+00   3.540851100000000e+00 -5.58957290e-01   1.20756500e-01  -5.74391620e-01
C     9.032683745424196e+00   5.391617284780998e+00   3.398570400000000e+00  6.59398450e-01  -2.89288426e+00   9.28641890e-01
C     1.002864408948006e+01   4.365189487858749e+00   3.477247500000000e+00  1.32905330e+00   3.68641450e-01   4.78051590e-01
C     1.138967293818721e+01   4.746564544023612e+00   3.734076600000000e+00  5.30993280e-01  -2.28186440e-01  -3.34121830e-01
C     3.570507554772406e+00   3.750555133139923e+00   3.780259500000000e+00 -5.89895960e-01   9.05961000e-03  -4.48450560e-01
C     4.958965751257354e+00   4.136245566915208e+00   3.804993000000000e+00 -2.87872280e-01   1.37299515e+00   1.26550598e+00
C     6.032792649292804e+00   3.224679889368650e+00   3.891741600000000e+00 -2.11508174e+00  -1.99202025e+00  -1.77902333e+00
C     7.361287331225558e+00   3.600667227451714e+00   3.647270100000000e+00 -2.13085860e-01   1.54941300e-02   7.70409920e-01
C     8.341507587146099e+00   2.626372018387059e+00   3.617432700000000e+00  1.18322361e+00  -2.97446379e+00   2.93162210e-01
C     9.700238080788965e+00   2.991850389062764e+00   3.492402000000000e+00  4.09415080e-01  -1.10872355e+00  -8.30669400e-02
C     1.832060809084714e+00   1.957490797860000e+00   3.492424200000000e+00  3.84864890e-01  -2.61522200e-01   9.42925460e-01
C     3.211002651374629e+00   2.366160120956847e+00   3.640699500000000e+00  9.66707240e-01  -8.74793730e-01  -2.55005270e-01
C     4.303754761228398e+00   1.354609470198184e+00   3.655820400000000e+00 -1.28240422e+00   2.14083497e+00  -5.09963780e-01
C     5.678520147576081e+00   1.813981362948651e+00   3.769493400000000e+00 -1.01301017e+00  -1.09007350e-01   9.75671870e-01
C     6.668653903845161e+00   8.149866091477266e-01   3.889073100000001e+00  1.61782020e-01   3.57969750e-01  -1.06159857e+00
C     8.045957968159184e+00   1.181998983957409e+00   3.823702200000000e+00 -1.09239200e+00   2.01772290e+00  -1.96106350e-01
C     1.498334321705737e+00   5.188952555680683e-01   3.592656600000000e+00  8.14887670e-01   2.14340681e+00  -2.87004350e-01
