26
Lattice="8.88768389401873 1.33226762955019e-15 0 4.44384194700937 7.69696003302603 0 0 0 30 " PBC="1 1 1" Properties=species:S:1:pos:R:3:force:R:3 Energy="-207.0154568"
C     7.888126083267061e-02   8.925171638947130e-02   3.390723000000000e+00  9.56871690e-01   2.34532640e-01   3.73941260e-01
C     6.953059392544542e+00   7.226794228381862e+00   3.813825600000000e+00 -1.42055405e+00   2.71066860e-01  -9.16091830e-01
C     3.884461430678630e+00   2.951938110705600e-03   3.837607800000000e+00 -6.53492340e-01  -2.27217007e+00  -8.82048070e-01
C     9.316136471090660e+00   6.692782451193274e+00   3.756408000000000e+00  1.46651506e+00  -1.48812702e+00   4.86778570e-01
C     1.070368381324954e+01   7.012896555813765e+00   3.483561600000000e+00 -1.36600732e+00   2.70878190e-01  -4.58541600e-01
C     1.167893838683232e+01   5.987559802975768e+00   3.313797300000000e+00  9.72754230e-01   1.26458336e+00   4.22314710e-01
C     4.159666833413135e+00   6.436090604493582e+00   3.224314800000000e+00 -3.81693780e-01  -1.24641429e+00   2.58668510e-01
C     5.154566565710757e+00   5.407771587522362e+00   3.252208800000000e+00  1.17351818e+00   3.04529958e+00   1.87061600e+00
C     6.504653609091502e+00   5.888057352187944e+00   3.642645900000000e+00  2.86953825e+00  -3.36848232e+00  -6.70899860e-01
C     7.616411142154227e+00   4.843533386478362e+00   3.727401300000000e+00 -1.05022322e+00   1.05535282e+00   5.38439090e-01
C     9.017521445506421e+00   5.271122299146551e+00   3.921214500000000e+00 -1.37533909e+00  -5.60749890e-01  -1.37951149e+00
C     1.003774281134473e+01   4.243118087840558e+00   3.826212600000000e+00 -3.89307270e-01   4.60034630e-01  -8.90946460e-01
C     1.139603123159096e+01   4.608672966298960e+00   3.486972600000000e+00 -3.71319643e+00   1.17799137e+00   9.18044030e-01
C     3.409700868073040e+00   3.592923623843932e+00   3.416551200000000e+00  3.76846457e+00   1.15577394e+00  -3.54834640e-01
C     4.780312862003200e+00   4.079930527946911e+00   3.342164100000000e+00  2.12244864e+00  -3.22331651e+00  -1.29749105e+00
C     5.906218343576093e+00   3.086256220797124e+00   3.252408000000000e+00 -8.38401050e-01   1.40041522e+00   2.45052777e+00
C     7.267978559780225e+00   3.451738901770445e+00   3.580319400000000e+00  1.09919132e+00   4.28375620e-01  -9.48462980e-01
C     8.344184512970354e+00   2.433960409742708e+00   3.615492600000000e+00 -2.17676210e+00   1.73630494e+00  -1.10482170e-01
C     9.700240746987312e+00   2.827410533772236e+00   3.764371199999999e+00 -2.09744187e+00   2.09731853e+00   3.09116920e-01
C     1.752101694368902e+00   1.838404048032642e+00   3.767652600000000e+00  3.10565081e+00  -3.37694060e-01  -1.03819395e+00
C     3.139398626086553e+00   2.239134803524147e+00   3.567360000000000e+00 -1.48103003e+00   4.39037630e-01   6.51110530e-01
C     4.193700260272799e+00   1.345884196308176e+00   3.552187200000000e+00  6.72306060e-01  -8.90837630e-01   6.81014810e-01
C     5.562423176932143e+00   1.740531736409571e+00   3.417180300000000e+00  3.50570320e-01  -1.92229235e+00  -1.25164205e+00
C     6.587941868990359e+00   6.985964892668795e-01   3.305187300000000e+00 -2.40778900e-01   8.35837160e-01   1.39453020e+00
C     7.963863143025717e+00   1.095410030890317e+00   3.395399100000000e+00  5.96664200e-02  -5.29978900e-01  -1.02011340e-01
C     1.461492916660025e+00   4.708562189328293e-01   3.665327400000000e+00 -1.43326811e+00  -3.27394500e-02  -5.39449100e-02
