32
Lattice="9.86 0 0 4.93 8.53901048131456 0 0 0 30 " PBC="1 1 1" Properties=species:S:1:pos:R:3:force:R:3 Energy="-254.53398113"
C     9.752555629300000e+00   4.834897887011192e-01   3.418774800000000e+00 -9.43457000e-02   1.91277124e+00   2.27631850e-01
C     1.147654059100000e+00   1.199683922492255e+00   3.536631300000000e+00 -4.59209300e-02   1.78469368e+00  -4.12948270e-01
C     2.397235325900000e+00   5.340740328835912e-01   3.202848900000000e+00 -2.15095256e+00   2.56299200e-02   1.56638180e-01
C     3.590707375300000e+00   1.270113339370876e+00   3.270946800000000e+00  5.65001790e-01   1.26767619e+00   4.30033600e-01
C     4.833421398600000e+00   5.727932366139984e-01   3.231176100000000e+00  3.59575100e-01   3.53498610e-01  -1.11729963e+00
C     6.101518315699999e+00   1.276469095651350e+00   3.242664900000000e+00 -3.24518014e+00   1.17396467e+00   3.51884220e-01
C     7.225891534399999e+00   5.142721529705760e-01   3.383603700000000e+00  3.94070693e+00   2.03989480e-01   1.28115690e-01
C     8.495454929299999e+00   1.196746844447554e+00   3.495094800000000e+00  1.21758474e+00   2.34191840e+00   4.63978840e-01
C     1.101588789860000e+01   2.719678595044611e+00   3.817206300000000e+00 -1.43747804e+00  -3.74632181e+00  -1.02395081e+00
C     2.342898690000000e+00   3.379115975537702e+00   3.760559400000000e+00  2.78949606e+00   1.21460695e+00   3.55478800e-02
C     3.573471060000000e+00   2.742102890466140e+00   3.464663700000000e+00 -4.43570820e-01  -3.43809215e+00  -3.99107910e-01
C     4.772485070300000e+00   3.406200094368271e+00   3.223505100000000e+00  2.47312245e+00   2.29434000e-03   4.64260590e-01
C     6.080260550100000e+00   2.736611538216556e+00   3.194576100000000e+00 -8.98868280e-01  -2.85162675e+00   4.66547240e-01
C     7.312227962200000e+00   3.389798619208602e+00   3.326219700000000e+00  6.84072650e-01  -1.78245920e-01   5.25070250e-01
C     8.571964486700001e+00   2.689103728729819e+00   3.619485000000000e+00 -1.15793314e+00  -9.02266420e-01  -1.35508439e+00
C     9.822839681300000e+00   3.475174976201729e+00   3.725969700000000e+00 -2.71895070e+00  -3.85147860e+00   1.24825290e-01
C     1.226026796610000e+01   4.791926085281536e+00   3.844231800000000e+00 -1.05908922e+00   2.49483058e+00  -1.86038162e+00
C     3.547972261900000e+00   5.527369539617525e+00   3.418327200000000e+00  2.91011581e+00  -1.94377419e+00  -4.30860000e-04
C     4.817835696600000e+00   4.790316567196160e+00   3.185408100000000e+00 -1.76134910e-01   2.53510533e+00  -3.61300910e-01
C     6.116373638199999e+00   5.501943525841964e+00   2.932308900000000e+00 -4.00126011e+00   1.07660865e+00   1.46672120e+00
C     7.270101753099999e+00   4.795373454592521e+00   3.191626800000000e+00  2.88107177e+00   5.09269430e-01  -6.71809030e-01
C     8.532274437100000e+00   5.499974686195589e+00   3.230864400000000e+00 -3.59673610e-01   1.59288983e+00   9.66048400e-02
C     9.744264256699999e+00   4.833794903027490e+00   3.565314300000000e+00  1.78988815e+00   2.32620534e+00   5.60406310e-01
C     1.103842677400000e+01   5.575955399177364e+00   3.728320500000000e+00 -2.47744517e+00  -2.49342205e+00  -1.01147214e+00
C     1.347659648150000e+01   6.920658361332716e+00   3.274269900000000e+00 -2.12313395e+00   7.70174670e-01   1.23950945e+00
C     4.806932804400000e+00   7.649674246310096e+00   3.176227200000000e+00  1.97841491e+00  -1.02873372e+00  -5.43245160e-01
C     6.068109727000000e+00   6.979225299462416e+00   2.947746900000000e+00 -1.24558215e+00  -2.47091601e+00  -1.69884400e-01
C     7.279729944500000e+00   7.635289856206012e+00   2.870651700000000e+00  9.38603140e-01   2.56918397e+00   1.92668913e+00
C     8.505027066599999e+00   6.966509688176439e+00   3.048170100000000e+00  1.50979137e+00  -1.75191237e+00  -2.74410990e-01
C     9.747248484299998e+00   7.699439001656802e+00   3.122667000000000e+00  3.86796310e-01  -1.90578588e+00   1.32753876e+00
C     1.097844938000000e+01   6.913849610546278e+00   3.395079900000000e+00  9.53069990e-01   2.63623698e+00   3.22649550e-01
C     1.224530373990000e+01   7.636988265390484e+00   3.442917300000000e+00 -1.74179171e+00  -2.28972400e-01  -1.11332677e+00
