2
Lattice="2.403 0 0 1.2015 2.08105904529401 0 0 0 30 " PBC="1 1 1" Properties=species:S:1:pos:R:3:force:R:3 Energy="-16.03727074"
C     0.000000000000000e+00   0.000000000000000e+00   3.000000000000000e+00  0.00000000e+00  -0.00000000e+00  -0.00000000e+00
C     1.201500000000000e+00   6.936863484313354e-01   3.000000000000000e+00 -0.00000000e+00   0.00000000e+00   0.00000000e+00
