26
Lattice="8.88768389401873 1.33226762955019e-15 0 4.44384194700937 7.69696003302603 0 0 0 30 " PBC="1 1 1" Properties=species:S:1:pos:R:3:force:R:3 Energy="-207.37307466"
C     7.730007521502636e-01   9.543381462508691e-01   3.429431400000000e+00 -2.12430156e+00   2.04874592e+00  -2.08780520e-01
C     3.099436220747430e+00   3.151957471613204e-01   3.241955400000000e+00  2.04865960e+00   3.62518555e+00   4.67316500e-02
C     4.522960862903196e+00   7.101006736061187e-01   3.211587900000000e+00 -2.30626299e+00   6.10450440e-01  -1.39887770e-01
C     9.934057937733773e+00   7.396849862679877e+00   3.093505200000000e+00  6.86084640e-01   7.38529340e-01   1.94450309e+00
C     6.863414297633235e+00   1.211856338579383e-01   3.376828200000000e+00 -4.66958300e-01  -1.30438290e-01  -1.08741185e+00
C     1.238528466492120e+01   6.920084841471217e+00   3.456063900000000e+00 -6.87221620e-01  -9.06127600e-01  -3.56146920e-01
C     4.849219921629626e+00   7.308475291855425e+00   3.533978700000000e+00  1.73693964e+00  -1.86152631e+00  -3.06143700e-01
C     5.902523913196381e+00   6.256916689526426e+00   3.519852900000000e+00 -1.06915920e-01   2.97940049e+00  -1.95924300e-02
C     7.266939547187322e+00   6.672542679037587e+00   3.300893400000000e+00 -2.34500221e+00  -1.64785119e+00   3.36026700e-01
C     8.238464493092582e+00   5.631930385384852e+00   3.219336600000000e+00 -1.03066847e+00   9.00324460e-01   6.55337230e-01
C     9.545325708112745e+00   6.016600741047359e+00   3.149242800000000e+00  3.78457738e+00   2.15145837e+00  -8.00699130e-01
C     1.067448932580547e+01   5.150069899666732e+00   3.168613200000000e+00 -1.53296024e+00  -1.53922311e+00   5.75203420e-01
C     1.202929688468735e+01   5.563611321492969e+00   3.330657300000000e+00  1.03015434e+00  -2.22505146e+00   4.03693940e-01
C     4.182945409383714e+00   4.533880143265045e+00   3.467870400000000e+00 -2.65785120e-01   6.80015790e-01   1.83883000e-01
C     5.578077989847596e+00   4.931980693575099e+00   3.650298600000000e+00 -2.16580929e+00  -3.15009451e+00  -1.93651177e+00
C     6.496408592286844e+00   3.830285556033084e+00   3.461045700000000e+00  2.62219829e+00   2.69411723e+00   2.11782632e+00
C     7.917725222742753e+00   4.298087236378008e+00   3.423018900000000e+00 -2.68592105e+00  -2.51234221e+00  -8.25731870e-01
C     8.916100439406673e+00   3.299834469523976e+00   3.366628500000000e+00  8.02634420e-01   1.49102413e+00  -4.08675070e-01
C     1.028248531755792e+01   3.778256261379092e+00   3.232004100000000e+00  1.90492968e+00  -2.31783551e+00   8.76184250e-01
C     2.461017535176938e+00   2.757542764552716e+00   3.339960600000000e+00  1.13087820e-01   2.01204298e+00  -9.38762400e-01
C     3.875660092677577e+00   3.143243974072042e+00   3.359637000000000e+00 -2.05274432e+00  -1.03311330e-01   3.96890960e-01
C     4.855036107465222e+00   2.107087681489475e+00   3.390802800000000e+00 -2.05033835e+00  -9.78262280e-01   1.29127150e-01
C     6.158639230864234e+00   2.457373176701163e+00   3.597427500000000e+00  2.11878424e+00   1.11728850e+00  -2.05378762e+00
C     7.183028564971259e+00   1.478107039940333e+00   3.430129800000000e+00  1.07402445e+00   1.71190186e+00   8.38213890e-01
C     8.558578156109633e+00   1.941569482098744e+00   3.400710600000000e+00  8.87438810e-01  -1.91395843e+00   4.11476800e-01
C     2.100244892579505e+00   1.419965281448117e+00   3.332432100000000e+00  1.01137614e+00  -3.47446283e+00   1.67032640e-01
