32
Lattice="9.668 0 0 4.834 8.37273360378795 0 0 0 30 " PBC="1 1 1" Properties=species:S:1:pos:R:3:force:R:3 Energy="-257.19247524"
C     2.065262066044448e-03   3.624640295825540e-03   2.995845281131105e+00 -2.21477150e-01  -3.02841830e-01   2.85099100e-02
C     1.209617905616108e+00   6.957222363237324e-01   3.001706335994052e+00 -2.14292500e-02   1.45594120e-01  -3.65547200e-02
C     2.418771989761863e+00  -4.053816743580292e-04   2.999743317806888e+00 -1.59133930e-01  -4.51911000e-02   6.57567100e-02
C     3.621504288945424e+00   6.993859373770588e-01   3.003239711354112e+00  3.08061020e-01  -1.26053520e-01  -7.23231400e-02
C     4.832859777889027e+00  -1.245822207816597e-03   2.997908283680311e+00  5.52213000e-03   1.17189720e-01   5.20923200e-02
C     6.041846848428754e+00   7.006464987375952e-01   2.997804978352599e+00 -6.22159000e-02  -2.93133220e-01   1.37178400e-02
C     7.251060856764457e+00   2.528043581874869e-04   3.000723865659173e+00 -6.42820900e-02   1.07407490e-01  -5.69728100e-02
C     8.457136916634118e+00   6.988653141856949e-01   2.996429072043810e+00  1.80764820e-01  -1.42734000e-02   4.87174300e-02
C     1.205805117271337e+00   2.092891475901859e+00   3.002010371591541e+00  1.60279160e-01  -6.83536100e-02  -1.30084700e-02
C     2.415979041990547e+00   2.787571011308518e+00   3.003686297268173e+00 -7.43530500e-02   1.37334420e-01  -5.21688800e-02
C     3.623280672427301e+00   2.093528030456643e+00   2.998078517240048e+00  2.00514770e-01   4.69879700e-02   5.98758200e-02
C     4.836072930997814e+00   2.792368676368015e+00   2.997953990187146e+00 -2.37445220e-01  -8.63206200e-02  -3.21605600e-02
C     6.042098305295282e+00   2.092770532597792e+00   2.997435948278155e+00 -9.24637300e-02   4.39857400e-02   2.02536900e-02
C     7.247314844647168e+00   2.787121216759572e+00   3.001903422725977e+00  1.87434770e-01   4.21547090e-01  -2.32562200e-02
C     8.455708886524315e+00   2.092964908047576e+00   3.003202779406577e+00  2.23380240e-01   1.10065780e-01  -6.47043000e-02
C     9.670525281842334e+00   2.793815228822514e+00   2.997301221140724e+00 -3.73854960e-01  -1.83062800e-01   8.52031800e-02
C     2.415588307166013e+00   4.183370952071114e+00   2.998929601528943e+00  1.62305640e-01   1.04791510e-01   1.81334500e-02
C     3.626380636190190e+00   4.883738247355486e+00   3.000616670306523e+00 -1.36692130e-01  -4.25815400e-02  -2.77451500e-02
C     4.834559219131908e+00   4.186847501072852e+00   2.996381004265780e+00  5.64363500e-02   3.72191200e-02   2.99132700e-02
C     6.044344164812952e+00   4.884918104187129e+00   2.997445017911287e+00 -1.21784290e-01   1.49256220e-01   9.45180000e-03
C     7.250274629782996e+00   4.190643442289048e+00   2.997939233268097e+00 -2.72700000e-05  -3.84284690e-01   3.19405900e-02
C     8.457826112006989e+00   4.885261139354917e+00   3.000840911627313e+00  7.45053000e-02   1.01974320e-01  -1.78327100e-02
C     9.664487171699198e+00   4.186813315197846e+00   3.002967547716713e+00  3.16517920e-01   1.52986060e-01  -6.45671000e-02
C     1.088001775962563e+01   4.885816236439643e+00   2.997081446049644e+00 -2.95869540e-01  -5.76386200e-02   5.60544400e-02
C     3.623614380393171e+00   6.279901304888162e+00   3.000252806425831e+00  1.16811710e-01  -7.85834100e-02  -2.71413000e-02
C     4.832141308201906e+00   6.975451712330361e+00   2.998939070464875e+00  1.37629700e-01   2.80208150e-01   4.09885000e-03
C     6.044784371844517e+00   6.283351671489954e+00   3.002097084429359e+00 -1.75138450e-01  -2.49027080e-01  -2.25257900e-02
C     7.252004343375575e+00   6.975912585669169e+00   3.003127046354955e+00  1.14154960e-01   2.06291940e-01  -5.54598600e-02
C     8.462969447595007e+00   6.283349830290133e+00   2.997033227407959e+00 -2.03135120e-01  -3.12437440e-01   7.83712300e-02
C     9.669564781218075e+00   6.973984023150375e+00   3.002435476236593e+00  2.37601800e-02   3.41658640e-01  -5.63169700e-02
C     1.087824284281382e+01   6.282862042988943e+00   3.000562048918750e+00  9.21744000e-02  -2.12692000e-01  -2.94921100e-02
C     1.208680487177807e+01   6.979737957280184e+00   2.997057883624277e+00 -1.20951000e-01  -4.80234000e-02   5.01395500e-02
