2
Lattice="2.463 0 0 1.2315 2.13302056952107 0 0 0 30 " PBC="1 1 1" Properties=species:S:1:pos:R:3:force:R:3 Energy="-16.13038905"
C     0.000000000000000e+00   0.000000000000000e+00   3.000000000000000e+00  0.00000000e+00   0.00000000e+00   0.00000000e+00
C     1.231500000000000e+00   7.110068565070240e-01   3.000000000000000e+00 -0.00000000e+00   0.00000000e+00   0.00000000e+00
