26
Lattice="8.88768389401873 1.33226762955019e-15 0 4.44384194700937 7.69696003302603 0 0 0 30 " PBC="1 1 1" Properties=species:S:1:pos:R:3:force:R:3 Energy="-208.67143125"
C     2.372451231856296e-01   2.610132279389363e-01   3.532525800000000e+00 -2.57093130e-01   7.32735380e-01   5.51174510e-01
C     7.052225903151877e+00   7.414765614724107e+00   3.558626400000000e+00  1.22208075e+00   1.59387730e-01   2.52641730e-01
C     3.995152912010048e+00   1.216248993668504e-01   3.582353400000000e+00  5.09171500e-02  -2.84811470e-01   3.78226490e-01
C     9.498262533951635e+00   6.838177872220774e+00   3.607186500000000e+00 -4.52489860e-01   1.11604070e-01   5.88355390e-01
C     1.087147106469189e+01   7.266124308682356e+00   3.632535600000000e+00 -1.04423578e+00  -3.10041001e+00  -9.11912800e-02
C     1.184844682710151e+01   6.186439167133329e+00   3.628602600000000e+00 -1.13579391e+00   9.76776510e-01  -5.31685820e-01
C     4.304538213955830e+00   6.577039953529352e+00   3.585825300000000e+00  7.96558040e-01   6.85601020e-01  -2.66466640e-01
C     5.317545313515033e+00   5.625488799535745e+00   3.552551400000000e+00  2.28386097e+00  -1.31538929e+00  -2.00669240e-01
C     6.748310618436069e+00   6.044015311464612e+00   3.556264800000000e+00 -2.27992364e+00  -7.66731090e-01   6.08091790e-01
C     7.754454337408879e+00   5.065371396952608e+00   3.705638700000000e+00  1.34590357e+00  -5.13175440e-01  -1.06041127e+00
C     9.162591865759790e+00   5.458187445414865e+00   3.713042400000000e+00 -9.84188610e-01  -1.43982372e+00  -7.32779370e-01
C     1.015481778276013e+01   4.372299862564862e+00   3.620039700000000e+00 -1.06126427e+00   3.04601075e+00   5.42242040e-01
C     1.147047562738378e+01   4.810748339169778e+00   3.545940900000000e+00  2.25034151e+00  -1.21024910e-01   3.89263140e-01
C     3.631933626615345e+00   3.806143348172587e+00   3.512096700000000e+00 -1.53852160e-01   2.48176590e+00   1.74674170e-01
C     4.998341923766288e+00   4.211677776418814e+00   3.512223900000000e+00 -2.77423410e-01   1.72044991e+00   5.86736500e-02
C     6.024362681148011e+00   3.262965954010675e+00   3.508263600000000e+00  1.89495384e+00   3.00813350e-01   5.14338960e-01
C     7.429567762647611e+00   3.670829790240382e+00   3.585324300000000e+00 -7.15382220e-01  -3.69908470e-01   3.24968310e-01
C     8.447881831532088e+00   2.656620840396159e+00   3.597269700000000e+00  6.55325690e-01   2.63362690e-01  -3.69009800e-02
C     9.837689356174653e+00   3.026052369743271e+00   3.649861500000000e+00 -1.11810356e+00  -8.46842630e-01  -5.87873520e-01
C     1.979263606818309e+00   2.025896298613020e+00   3.593572500000000e+00 -2.13846221e+00   2.01477327e+00   2.48976190e-01
C     3.296012725716214e+00   2.476391364330488e+00   3.571306200000000e+00  1.06741938e+00  -1.85119252e+00   1.25546400e-01
C     4.334248893576157e+00   1.506324480258314e+00   3.632767500000000e+00  3.35507250e-01  -6.97210530e-01  -7.16575400e-01
C     5.702591195174545e+00   1.903487925684716e+00   3.586888800000000e+00  3.54361810e-01  -1.19787648e+00  -4.21155100e-02
C     6.751511958833263e+00   9.024714113927111e-01   3.605628000000000e+00  4.13827320e-01   1.55828078e+00  -4.31874170e-01
C     8.144899975804789e+00   1.267338027685231e+00   3.527265300000000e+00 -1.86927315e+00   6.02000770e-01   5.73569240e-01
C     1.582086122248282e+00   7.025355625014326e-01   3.596424300000000e+00  8.16428640e-01  -2.14916556e+00  -6.32198800e-01
