26
Lattice="8.88768389401873 1.33226762955019e-15 0 4.44384194700937 7.69696003302603 0 0 0 30 " PBC="1 1 1" Properties=species:S:1:pos:R:3:force:R:3 Energy="-209.02161085"
C     1.261796231827702e+01   6.870289589465933e+00  -1.829130000000134e-02 -2.00516655e+00  -9.58427960e-01  -1.06034940e-01
C     8.799420038957413e+00   6.618644716427512e+00  -2.314830000000256e-02  1.05551506e+00   3.31196090e-01  -2.51096310e-01
C     1.018152278550960e+01   6.237293135990740e+00  -7.917360000000073e-02  3.71417400e-01  -2.27824250e-01   4.68226400e-02
C     1.052071061947308e+01   4.827024484788416e+00  -9.958770000000072e-02 -1.04996678e+00   2.01273119e+00   9.93690900e-02
C     6.430289024944074e+00   6.061676294131848e+00   3.558600000000000e-03 -2.35066940e-01  -6.28893480e-01  -3.14803240e-01
C     7.765480531731115e+00   5.639633502982876e+00  -3.840599999999839e-02  1.33319647e+00  -2.45523250e-01   4.42680480e-01
C     8.131041456688680e+00   4.246290697795324e+00  -1.769760000000176e-02 -1.36013844e+00   6.83753660e-01  -7.42134200e-01
C     9.467998101962761e+00   3.867450558446740e+00  -8.875680000000230e-02  1.87687378e+00  -5.68936250e-01   4.52348650e-01
C     9.886892240422306e+00   2.496994971786794e+00  -4.021889999999928e-02 -1.65983758e+00   7.19675000e-02   2.85217700e-02
C     4.035988623410601e+00   5.497494896652870e+00  -5.176890000000256e-02  1.16347390e-01  -1.86809760e+00  -5.81308900e-02
C     5.421029727100625e+00   5.065281958277059e+00  -5.273370000000099e-02 -1.44817537e+00   1.99892300e-01  -3.36877890e-01
C     5.732546957121786e+00   3.673284889581152e+00  -1.693956000000014e-01  1.00599220e-01   6.03291580e-01   9.65736550e-01
C     7.092443825454827e+00   3.261169021722071e+00  -8.099219999999718e-02 -5.75868700e-02   1.52975338e+00  -5.66122700e-02
C     7.422218180198295e+00   1.926207889270870e+00  -5.727060000000250e-02  2.02060419e+00  -2.28384075e+00  -2.70501520e-01
C     8.836468301502448e+00   1.520162151969849e+00  -2.437590000000256e-02 -5.16054060e-01   8.59870300e-02   3.12026060e-01
C     2.978222213297815e+00   4.483650474835668e+00  -9.319830000000096e-02  2.14260233e+00  -3.18508260e-01  -4.87033600e-02
C     3.353727390000687e+00   3.081786519138102e+00  -8.706749999999985e-02  7.09165800e-01   2.08389457e+00   1.05069260e-01
C     4.705283611407808e+00   2.701459711959725e+00  -1.188231000000002e-01  8.90434170e-01  -7.41586110e-01   2.62484700e-02
C     5.071302740907600e+00   1.307005696652641e+00  -5.502660000000148e-02 -5.92601810e-01   1.01367280e-01  -3.73833110e-01
C     6.426586590233980e+00   8.967137774118699e-01  -1.021448999999990e-01  9.47434100e-02   1.45788301e+00   4.39399500e-01
C     1.122562469270634e+01   7.244812426964090e+00  -8.295929999999885e-02 -2.91212370e-01  -1.36222309e+00   2.01120640e-01
C     2.371513225389331e+00   2.134129949950076e+00  -3.334800000001081e-03 -1.95548272e+00  -2.37906723e+00  -2.32270010e-01
C     2.665531316829058e+00   7.163714639121600e-01   2.472510000000000e-02  1.65247205e+00   9.68003520e-01  -1.48743100e-01
C     4.058346299884811e+00   3.162159022436966e-01  -2.949300000000932e-03 -1.34143462e+00   3.18995100e-02  -3.89785400e-02
C     2.784334054285161e-01   1.295808621018599e-01   4.545540000000000e-02  1.28043356e+00   1.47459969e+00  -6.13097400e-01
C     6.108295793036697e+00   7.440998470867953e+00   1.276590000000000e-02 -1.13168073e+00  -5.32920700e-02   4.72473660e-01
