32
Lattice="9.86 0 0 4.93 8.53901048131456 0 0 0 30 " PBC="1 1 1" Properties=species:S:1:pos:R:3:force:R:3 Energy="-255.84545412"
C     9.807005704500000e+00   9.725224198850160e-02   3.558933000000000e+00  2.30582424e+00  -1.58968124e+00   1.07353126e+00
C     1.230692366200000e+00   7.857342981183696e-01   3.598499700000000e+00 -9.68360010e-01  -2.89287587e+00   3.54327980e-01
C     2.468638783700000e+00   5.669774873562800e-02   3.752427900000000e+00 -9.63213150e-01   7.45409430e-01  -1.54690220e-01
C     3.667109015000000e+00   7.982849357218735e-01   3.718289100000000e+00  1.05830178e+00  -1.21695864e+00  -9.02613500e-02
C     4.895037475300001e+00   7.655265590372401e-02   3.681327300000000e+00  9.38793760e-01   9.70203530e-01   1.20653542e+00
C     6.157896168800000e+00   8.192099516833231e-01   3.771473100000000e+00 -1.13773760e+00  -1.26448408e+00  -6.89883210e-01
C     7.392227170799999e+00   4.588129877050720e-02   3.774316200000000e+00 -2.52229048e+00  -6.92356500e-01   3.84967100e-02
C     8.566761611199999e+00   7.571088025060559e-01   3.621103200000000e+00  1.83031368e+00  -4.12539470e-01   5.79446470e-01
C     1.107334842900000e+01   2.139041423403685e+00   3.617020200000000e+00  1.21603791e+00   3.59612462e+00  -2.01116720e-01
C     2.464769670400000e+00   2.898632174695858e+00   3.639153300000000e+00 -2.03606017e+00   1.53381094e+00   2.85723150e-01
C     3.670914728500000e+00   2.187672368938857e+00   3.700781400000000e+00  7.87477130e-01   3.20018349e+00  -2.93799450e-01
C     4.892034760200000e+00   3.025506841770213e+00   3.707448000000000e+00  7.03691020e-01  -5.37752424e+00   2.93368680e-01
C     6.130208992999999e+00   2.272917908291430e+00   3.723270600000000e+00 -6.40367050e-01  -2.49576496e+00  -8.10256400e-02
C     7.377142849799998e+00   2.864518144707419e+00   3.690277200000000e+00  7.69900520e-01   1.75514388e+00   9.38731860e-01
C     8.634323317200000e+00   2.141251660876328e+00   3.711936000000000e+00 -1.67851034e+00   2.23824850e+00  -1.00450209e+00
C     9.848863130000000e+00   2.860669100343454e+00   3.635103600000000e+00  4.03078030e-01   9.50107250e-01  -1.35318340e-01
C     1.227183137970000e+01   4.407664294813780e+00   3.664370700000000e+00  9.09045530e-01  -2.99409953e+00   1.02650110e-01
C     3.693176685800000e+00   5.031112905567548e+00   3.710374200000000e+00 -1.17066968e+00   2.11700648e+00   5.31377180e-01
C     4.942668719600000e+00   4.371762964541773e+00   3.775495800000000e+00 -1.89062263e+00   7.64670400e-01  -1.07503338e+00
C     6.162197495199999e+00   5.043986830107825e+00   3.715800300000000e+00  4.57944200e-02   9.39484910e-01   1.34777401e+00
C     7.337896253699999e+00   4.288256821623976e+00   3.782156700000000e+00  3.05104516e+00   7.23467720e-01  -1.30938928e+00
C     8.621960454800000e+00   4.992716391043181e+00   3.685443000000000e+00 -1.12646594e+00   1.01825359e+00   1.17111471e+00
C     9.865405597100001e+00   4.326269080676743e+00   3.609225000000000e+00 -2.13997068e+00  -1.67138112e+00   4.44942880e-01
C     1.100365361060000e+01   5.108495638680034e+00   3.671847000000000e+00  2.97315400e+00  -1.69329284e+00  -3.72844620e-01
C     1.353340225860000e+01   6.464592458689165e+00   3.765655500000000e+00  1.50336792e+00  -5.46992670e-01  -1.85135900e-02
C     4.942509332700000e+00   7.220808507649537e+00   3.729216900000000e+00 -1.65710514e+00  -1.14904718e+00  -3.30486330e-01
C     6.158631872699999e+00   6.467100109896826e+00   3.800369700000000e+00  8.22657240e-01   1.27080503e+00  -1.64811870e-01
C     7.414560563799999e+00   7.198917985773114e+00   3.891813600000000e+00 -7.04745560e-01  -1.94343133e+00  -9.56311950e-01
C     8.646522207800000e+00   6.436401427930074e+00   3.848253600000000e+00 -1.64691703e+00   1.83706390e-01  -8.78498280e-01
C     9.820101214199997e+00   7.198027537760259e+00   3.738378300000000e+00  6.48935480e-01   4.14340310e-01   1.60899100e-02
C     1.104332295420000e+01   6.503331558313990e+00   3.711557700000000e+00 -3.71202730e-01  -9.63493490e-01   5.71732710e-01
C     1.229120770940000e+01   7.090766123857416e+00   3.841845000000000e+00  6.86820360e-01   4.48295670e+00  -1.19935673e+00
