32
Lattice="9.86 0 0 4.93 8.53901048131456 0 0 0 30 " PBC="1 1 1" Properties=species:S:1:pos:R:3:force:R:3 Energy="-257.32166069"
C     4.999279564500000e+00   8.403414323791687e+00  -5.302499999999988e-01 -2.53861526e+00  -1.03717570e+00   1.06102700e-01
C     1.265299881600000e+00   5.766497953071856e-01  -5.282253000000026e-01  5.98013690e-01  -3.01974300e-02  -3.48392430e-01
C     7.414995734900000e+00   8.402959023752894e+00  -5.439737999999998e-01  1.11379939e+00  -3.73915220e-01   2.41361270e-01
C     3.730996589200000e+00   5.583773375612433e-01  -4.920738000000000e-01 -3.15736220e-01   1.04294592e+00   2.47221230e-01
C     9.896824339199998e+00   8.397629571142010e+00  -4.318361999999993e-01 -1.05141778e+00  -4.64677030e-01  -2.02856080e-01
C     6.176120505399999e+00   5.526005261913136e-01  -4.569347999999991e-01  1.33149550e+00   1.09034533e+00   9.31216100e-02
C     1.234168568360000e+01   8.372319260958452e+00  -4.389087000000025e-01  1.01076741e+00   1.06060426e+00  -1.33759880e-01
C     8.664347263700000e+00   5.590432949885784e-01  -5.259752999999989e-01  3.33530000e-03   3.85221540e-01   2.92432950e-01
C     1.291424247400000e+00   1.995438664018800e+00  -4.944404999999996e-01 -2.23688466e+00   1.52521680e-01   6.33699470e-01
C     2.469355112700000e+00   2.684958209921988e+00  -3.620885999999999e-01  2.42959865e+00   2.12587311e+00  -7.37586400e-02
C     3.725755210400000e+00   2.008371336951179e+00  -4.153358999999988e-01 -6.12688450e-01  -1.63014928e+00  -2.03187180e-01
C     4.941512092300000e+00   2.696919143461743e+00  -4.345259999999982e-01  9.09059910e-01   1.02822936e+00   2.72071560e-01
C     6.204911261700000e+00   2.003771798956127e+00  -4.837568999999995e-01 -1.65821945e+00  -9.97824770e-01  -2.16233270e-01
C     7.401092050299999e+00   2.714692410655025e+00  -5.566230000000019e-01  1.78444429e+00  -7.03136300e-02   6.02340050e-01
C     8.652649113199999e+00   1.992078904955339e+00  -5.242223999999993e-01  7.63344710e-01   7.00723270e-01  -1.41436950e-01
C     9.923573976900000e+00   2.745599359087385e+00  -4.534334999999992e-01 -1.45327588e+00  -1.71993894e+00  -4.02196740e-01
C     2.500874525400000e+00   4.143238208911401e+00  -2.532519000000022e-01 -6.85290810e-01  -9.41099040e-01  -4.07741320e-01
C     3.724463501100000e+00   4.860370865344394e+00  -3.240821999999994e-01 -1.36433840e-01  -1.51973705e+00   6.49880870e-01
C     4.930493690200001e+00   4.132293246838557e+00  -3.825518999999993e-01  2.07248936e+00   5.87463500e-02  -5.70631300e-01
C     6.213367740000000e+00   4.854146012094580e+00  -4.805051999999996e-01 -1.66506543e+00  -3.71037960e-01   1.50902210e-01
C     7.440361423000000e+00   4.144087840454162e+00  -5.168799000000028e-01 -6.43325110e-01  -3.77599210e-01  -1.78846090e-01
C     8.663982443700000e+00   4.844557813396902e+00  -4.826060999999982e-01  1.94590450e-01   7.33960390e-01   4.91791910e-01
C     9.899796586899999e+00   4.159128538903738e+00  -3.831845999999999e-01  8.63025500e-02  -7.02381130e-01  -2.09879900e-02
C     1.112943644740000e+01   4.855958331678854e+00  -2.470703999999984e-01 -1.11253940e-01  -1.41223530e-01  -3.47630590e-01
C     3.734955872200000e+00   6.252294384673938e+00  -2.991324000000013e-01 -4.98381370e-01   9.81736700e-01  -8.59912350e-01
C     4.936457166100000e+00   6.944768769763625e+00  -4.868904000000001e-01  1.44192125e+00   2.06501026e+00   3.23725030e-01
C     6.176377999300000e+00   6.281315151081371e+00  -5.213900999999979e-01  1.12953211e+00  -1.13793782e+00   9.25810500e-02
C     7.438563797100000e+00   6.974539005120887e+00  -5.379027000000001e-01 -1.31479153e+00   7.15929050e-01   1.30832690e-01
C     8.660552445499999e+00   6.283244113548802e+00  -4.403325000000002e-01 -5.74991630e-01  -1.28716642e+00  -4.42155040e-01
C     9.874501841499999e+00   6.969028610877934e+00  -3.884346000000001e-01  1.02246858e+00   7.28858850e-01   2.22186690e-01
C     1.110028944930000e+01   6.265130822958207e+00  -2.753915999999990e-01  1.47406220e+00   5.79385390e-01  -2.00626250e-01
C     1.237864002690000e+01   6.975034780069357e+00  -3.208215000000010e-01 -1.86885397e+00  -6.47717270e-01   2.00100800e-01
