32
Lattice="9.86 0 0 4.93 8.53901048131456 0 0 0 30 " PBC="1 1 1" Properties=species:S:1:pos:R:3:force:R:3 Energy="-253.74731047"
C     1.279860636600000e+00   7.343458499288912e-01   3.709478100000000e+00 -2.34663669e+00   9.35969030e-01  -6.11220610e-01
C     2.479023631500000e+00   1.419967166767750e+00   3.725608800000000e+00 -1.52549447e+00   1.34697619e+00   5.35707690e-01
C     3.629019785700000e+00   7.746905396942712e-01   3.552030000000000e+00  5.91598482e+00  -9.73501440e-01  -7.76958920e-01
C     4.895465990900000e+00   1.551499522498526e+00   3.503337600000000e+00 -5.17593520e-01  -2.02973553e+00   8.81505110e-01
C     6.091055968299999e+00   7.002351501545400e-01   3.491874300000000e+00 -8.38531540e-01   4.49436861e+00  -8.73488270e-01
C     7.269488165299999e+00   1.423973670484966e+00   3.422132400000000e+00  5.78185980e+00  -2.13879100e-02   1.43535741e+00
C     8.620279078299999e+00   6.962665596438552e-01   3.536260200000000e+00 -6.80012000e-02   3.81217498e+00  -3.42676290e-01
C     9.948504592499999e+00   1.490622184303252e+00   3.681717900000000e+00 -5.13900641e+00  -1.78905132e+00  -6.58707570e-01
C     2.463213022900000e+00   2.810182115490349e+00   3.881932500000000e+00  2.73178220e-01   3.44292088e+00   9.04840800e-02
C     3.622162352900000e+00   3.681354678427826e+00   3.825724800000000e+00  3.53083051e+00  -2.99997590e+00  -8.03807910e-01
C     4.981539255300000e+00   2.991658801958226e+00   3.651786300000000e+00 -4.33829022e+00  -3.45188897e+00   4.21769940e-01
C     6.214001836600000e+00   3.567636150190112e+00   3.653176800000000e+00 -1.03641658e+00   2.47536363e+00  -1.40639980e+00
C     7.407025896899999e+00   2.836528378425342e+00   3.520624800000000e+00 -7.35741230e-01   1.68518619e+00   3.87610440e-01
C     8.597895497900000e+00   3.672865194208610e+00   3.616715700000000e+00  8.73967910e-01  -3.37242368e+00  -1.43445230e+00
C     9.810124225299999e+00   2.902237088750199e+00   3.676503900000000e+00  2.06839024e+00  -1.01329230e-01   1.47397203e+00
C     1.109288710360000e+01   3.526249615756067e+00   3.931482000000000e+00 -1.78437357e+00   1.81874594e+00  -1.57738494e+00
C     3.713233651300000e+00   5.073024503756009e+00   3.725699400000000e+00 -1.54172834e+00  -2.26627980e-01   2.37257700e-01
C     4.963087842900000e+00   5.749577135294794e+00   3.566011200000000e+00 -3.04064703e+00   9.10811550e-01   1.63738500e-01
C     6.090896236299999e+00   5.008528503699521e+00   3.482416200000000e+00  4.38835679e+00  -8.77711640e-01   1.02579109e+00
C     7.316374881000000e+00   5.708550690932690e+00   3.433096500000000e+00  1.87539637e+00   2.82037025e+00  -1.34536903e+00
C     8.625147897000000e+00   5.071912126860779e+00   3.393250200000000e+00 -2.99889988e+00  -9.73014400e-01   1.86327497e+00
C     9.813637392600000e+00   5.754207242947364e+00   3.556641300000000e+00  3.09169806e+00  -3.01328050e-01  -3.35287500e-01
C     1.103017360890000e+01   4.963080815881187e+00   3.806208000000000e+00  2.57094904e+00   1.93015996e+00  -4.73270610e-01
C     1.234357604280000e+01   5.740892022345480e+00   3.720169200000000e+00 -3.28452881e+00   1.31009279e+00   3.66056580e-01
C     4.911651427400000e+00   7.176456801826312e+00   3.542961900000000e+00  1.99994400e-02  -8.99196540e-01  -3.17924670e-01
C     6.116930333799999e+00   7.893152346312833e+00   3.495661200000000e+00  1.73700011e+00  -6.47974490e-01   3.01720980e-01
C     7.357158256700000e+00   7.189024261280461e+00   3.370443900000000e+00  1.42056122e+00  -1.69651387e+00   8.11424140e-01
C     8.686966941800000e+00   7.888560237256899e+00   3.416597400000000e+00 -2.74383678e+00  -3.37246430e-01  -3.45227780e-01
C     9.939950598799999e+00   7.179397466255415e+00   3.393087300000000e+00 -4.33256497e+00  -1.76547904e+00   7.40787020e-01
C     1.110133396840000e+01   7.873112484177740e+00   3.471685800000000e+00 -6.30795150e-01   8.97219800e-02   3.57025350e-01
C     1.228294202210000e+01   7.226654997344983e+00   3.617704800000000e+00  2.07447175e+00  -4.53580405e+00  -4.28979670e-01
C     1.351968586470000e+01   7.864222776537328e+00   3.532628100000000e+00  1.28044212e+00  -7.26715500e-02   6.37672830e-01
