32
Lattice="9.86 0 0 4.93 8.53901048131456 0 0 0 30 " PBC="1 1 1" Properties=species:S:1:pos:R:3:force:R:3 Energy="-255.38482562"
C     4.968680780000000e+00   7.987085218757445e+00  -1.541859000000017e-01  2.80292117e+00  -4.14892190e-01  -5.17118600e-01
C     1.301568511200000e+00   1.839133784984496e-01  -2.793039000000022e-01  8.50319260e-01  -1.54683662e+00   1.49714653e+00
C     7.451327567099999e+00   7.955123104800071e+00  -1.604625000000013e-01  1.20835688e+00   2.09321774e+00  -1.92176200e-01
C     3.802905322700000e+00   1.676679964503544e-01   4.238340000000000e-02 -9.15762690e-01  -1.03895067e+00  -1.03866125e+00
C     1.001511480850000e+01   7.960298940612419e+00  -3.175290000000075e-02 -3.60897696e+00   2.45242406e+00   9.58785230e-01
C     6.240901296999999e+00   1.751127327373424e-01  -5.006429999999895e-02  2.07304673e+00  -1.99122290e-01  -4.79665090e-01
C     1.242908265300000e+01   8.033080598707965e+00  -9.028199999999487e-03 -6.43904860e-01  -1.94142047e+00   2.03982930e-01
C     8.726828062399999e+00   1.493460978337328e-01  -2.093279999999993e-01 -1.39769469e+00   1.04498833e+00   6.81277680e-01
C     1.366212741800000e+00   1.590096276818650e+00  -5.855940000000004e-02 -9.68198610e-01   1.88154660e-01   1.18310421e+00
C     2.555605807800000e+00   2.301900334541808e+00   2.839671000000000e-01  4.66930490e-01   1.92878160e-01   1.08875120e-01
C     3.778324934300000e+00   1.587976809027409e+00   2.269785000000000e-01  2.13894847e+00  -4.44883350e-01  -8.84680050e-01
C     5.092453162800000e+00   2.291031028101816e+00   1.185930000000000e-01 -3.37793984e+00   1.82872951e+00   9.94581640e-01
C     6.240207941800000e+00   1.592066909657224e+00  -1.659128999999986e-01  2.07721323e+00  -9.71831000e-03   2.83258340e-01
C     7.524431086099999e+00   2.290278485108214e+00  -2.840361000000016e-01 -7.32321110e-01   5.67825840e-01   1.49068163e+00
C     8.751590564999999e+00   1.567725947943355e+00  -2.105385000000020e-01  2.18672900e-02   1.18754014e+00  -3.48536100e-02
C     9.981186400599999e+00   2.274226938598015e+00   4.802130000000000e-02 -4.45156150e-01   1.32325754e+00  -1.29472578e+00
C     2.572524286000000e+00   3.724642594325453e+00   5.789331000000000e-01 -9.46173880e-01  -5.11582980e-01  -1.56599211e+00
C     3.796949734800000e+00   4.446412018839190e+00   4.208754000000000e-01  1.10151800e+00  -1.51060293e+00   3.18138330e-01
C     5.073773097000000e+00   3.764483567862618e+00   2.735202000000000e-01 -1.76330567e+00  -2.87043162e+00  -8.47504240e-01
C     6.261298531100000e+00   4.417612754363609e+00  -1.175429999999977e-02  7.78772620e-01  -1.14425480e-01  -1.60152590e-01
C     7.513950941399999e+00   3.730095947978400e+00  -1.152542999999966e-01  1.82828670e-01  -1.12488113e+00  -8.01039670e-01
C     8.727351431200001e+00   4.470061320704179e+00  -6.389550000000099e-02  1.10413081e+00  -8.74389680e-01   8.23825730e-01
C     9.987922358199999e+00   3.734462797937872e+00   1.602090000000000e-01 -1.56207628e+00  -5.00898870e-01   9.36188600e-02
C     1.117266495520000e+01   4.434247344509382e+00   4.924008000000000e-01  8.98884810e-01   1.20069491e+00  -3.35856150e-01
C     3.789664673800000e+00   5.822160005226364e+00   2.456772000000000e-01 -3.06471070e-01   2.78288686e+00   4.50665190e-01
C     4.984933658900000e+00   6.579883531096876e+00   3.267150000000000e-02  1.79865581e+00  -2.13720891e+00  -1.24303123e+00
C     6.248730383500000e+00   5.783158160249069e+00  -1.752524999999991e-01 -6.91123970e-01   4.05474916e+00   9.46689090e-01
C     7.487483940599999e+00   6.543022757607336e+00  -2.470460999999986e-01 -1.55130030e+00   2.87240360e-01   5.29433960e-01
C     8.708206860800001e+00   5.900852622546482e+00  -6.165540000000291e-02  8.28314730e-01  -1.63963886e+00   1.67325890e-01
C     9.927948563099999e+00   6.592192002363166e+00   1.295790000000000e-01  1.88037356e+00  -1.35557427e+00   3.49825560e-01
C     1.117559002280000e+01   5.914822272911552e+00   4.580184000000000e-01 -4.00840760e-01  -1.43981399e+00  -1.46042709e+00
C     1.243319698450000e+01   6.594230434944953e+00   2.881434000000000e-01 -9.01835720e-01   4.70685380e-01  -2.25332250e-01
