32
Lattice="9.86 0 0 4.93 8.53901048131456 0 0 0 30 " PBC="1 1 1" Properties=species:S:1:pos:R:3:force:R:3 Energy="-257.24250901"
C     4.960138273199999e+00   8.109919055292455e+00   8.527799999999999e-02  4.17204530e-01   1.31647066e+00  -3.06154740e-01
C     1.269947343300000e+00   3.149372361551416e-01   4.377180000000000e-02  5.43506400e-02  -4.78627340e-01   6.71404200e-01
C     7.440387009699999e+00   8.139183012718357e+00   8.051580000000000e-02 -2.02501395e+00  -1.22487915e+00  -7.21582810e-01
C     3.687193539200000e+00   2.889204936345728e-01   3.792930000000000e-02  3.39192454e+00   1.81177510e+00   5.46864410e-01
C     9.906664175500000e+00   8.140834628125399e+00   2.273010000000000e-02 -2.28300510e+00  -1.07688855e+00   2.24519260e-01
C     6.168973878799999e+00   3.009669880593376e-01   2.482590000000000e-02  1.98864068e+00  -4.81333430e-01  -5.90887100e-02
C     1.235265010220000e+01   8.110435836206705e+00   4.133070000000000e-02 -1.93768300e-02   8.29288670e-01   2.52425940e-01
C     8.662319258900000e+00   2.891357620887736e-01   8.242980000000000e-02 -4.22716000e-02   5.30931050e-01   7.01868600e-02
C     1.310418896500000e+00   1.739592405066516e+00   7.607100000000000e-02 -2.24319801e+00  -3.67604160e-01   2.16049100e-02
C     2.498391925300000e+00   2.465938056076695e+00   9.364590000000000e-02  1.26551203e+00  -1.13492398e+00   3.50484910e-01
C     3.738113340000000e+00   1.737064431013912e+00   1.253076000000000e-01 -2.67152820e-01  -4.75323230e-01  -6.68605900e-01
C     4.992355872499999e+00   2.422442727614510e+00   1.064883000000000e-01 -1.00926411e+00   1.01845624e+00  -5.04233690e-01
C     6.209022783099999e+00   1.707882789649036e+00   9.019500000000000e-03 -2.43080470e-01   1.02891491e+00   7.54812140e-01
C     7.420239578700000e+00   2.449756118876467e+00   5.827470000000000e-02  1.77697675e+00   1.14735120e-01  -3.21056400e-01
C     8.696119733300000e+00   1.741037376419942e+00   1.199967000000000e-01 -1.77737793e+00  -9.47139820e-01  -6.01589660e-01
C     9.904354125399999e+00   2.440535609970058e+00   1.003950000000000e-01  5.21991780e-01   1.07838991e+00   3.50790720e-01
C     2.484954618700000e+00   3.860806936291105e+00   1.165941000000000e-01  4.55579700e-02   6.11878310e-01  -4.75636900e-02
C     3.701048071699999e+00   4.554365519541437e+00   6.065070000000000e-02  1.57288435e+00   8.40742930e-01   2.09599100e-02
C     4.967950794900000e+00   3.882325755041334e+00   6.534150000000000e-02 -6.55105290e-01  -1.82666458e+00   4.77773000e-03
C     6.182752094900000e+00   4.573864349972517e+00   1.606500000000000e-03  1.04424917e+00   9.34549260e-01  -3.60489120e-01
C     7.448940115999999e+00   3.887432681039107e+00  -2.120610000000056e-02 -7.14393670e-01  -2.97944420e-01   5.14893410e-01
C     8.688896543799999e+00   4.639753831149237e+00   8.212500000000001e-03 -1.57798911e+00  -2.53581515e+00   3.18623060e-01
C     9.874377063200001e+00   3.895686488569075e+00   1.440144000000000e-01  1.40360807e+00  -9.13705350e-01  -7.14359280e-01
C     1.113376883280000e+01   4.584046693019393e+00   1.422276000000000e-01 -1.33263557e+00  -3.08406890e-01  -1.17150870e-01
C     3.730389804800000e+00   5.979634216355800e+00   1.184490000000000e-02 -2.08535340e-01   2.16936950e-01   7.61701640e-01
C     4.975172061700000e+00   6.700718385278518e+00   4.763100000000000e-02 -1.20116232e+00  -4.49329100e-02  -4.09365000e-01
C     6.182439877999999e+00   6.014737746878660e+00  -2.463900000000052e-02  1.45059589e+00  -1.11925597e+00   4.56966680e-01
C     7.440667477400000e+00   6.701697212049840e+00   1.450410000000000e-02 -1.57478075e+00   1.23950917e+00  -1.52737770e-01
C     8.654197921999998e+00   6.030186012298447e+00  -6.532799999998673e-03  2.91251240e-01  -5.13914630e-01   3.77553420e-01
C     9.877885941399999e+00   6.690067250556289e+00   6.497790000000001e-02  6.73782890e-01   2.29229241e+00  -3.34365520e-01
C     1.108697854790000e+01   5.992221315534053e+00   9.816090000000000e-02  2.14118923e+00   1.18566300e-01   6.86508000e-02
C     1.236261663950000e+01   6.699352485162137e+00   7.847850000000001e-02 -8.65376900e-01  -2.36077450e-01  -4.48876830e-01
