32
Lattice="9.86 0 0 4.93 8.53901048131456 0 0 0 30 " PBC="1 1 1" Properties=species:S:1:pos:R:3:force:R:3 Energy="-256.96613251"
C     9.848493823700000e+00   6.360802835667280e-02  -2.020944000000000e-01 -2.18770153e+00  -4.16567400e-01  -1.40655370e-01
C     1.190970074400000e+00   7.424206797991983e-01  -2.383556999999996e-01  1.19662093e+00   1.70702266e+00   1.23026739e+00
C     2.423555609900000e+00   3.268144020020880e-02  -2.134433999999992e-01  9.82274960e-01   1.23209311e+00  -6.67281610e-01
C     3.669405310400000e+00   7.701229375984143e-01  -1.994298000000008e-01 -6.78182040e-01   5.89301460e-01  -1.22594800e-02
C     4.901047391800000e+00   7.912195876705121e-02  -2.585322000000012e-01 -1.29424200e-02  -8.28581600e-01   7.45545040e-01
C     6.131688781800000e+00   7.799655134182911e-01  -2.262437999999989e-01 -3.43644870e-01  -7.43073400e-02   3.13469170e-01
C     7.335778227100000e+00   7.248637911314799e-02  -1.179065999999978e-01  1.79239468e+00   6.73803120e-01  -9.72262660e-01
C     8.591140066800000e+00   7.984833823254288e-01  -2.081553000000014e-01  1.35116770e-01  -1.67012702e+00   4.85822990e-01
C     1.106644430910000e+01   2.190409292577907e+00  -3.646230000000017e-02 -1.62151800e-01  -6.60410730e-01  -7.74833870e-01
C     2.420977170600000e+00   2.914122110486787e+00   2.007150000000000e-02  5.67409550e-01  -5.35177280e-01   4.10939650e-01
C     3.679234152800000e+00   2.217994992884071e+00  -7.627049999999969e-02 -1.49645202e+00  -1.56498218e+00  -1.03553800e-01
C     4.885579615399999e+00   2.905506590472886e+00  -8.515590000000017e-02  1.26273217e+00  -4.36432200e-01  -1.69509330e-01
C     6.154231650500000e+00   2.183931940788197e+00  -2.194896000000028e-01 -1.91625471e+00   1.03896932e+00   4.05804810e-01
C     7.343792928099999e+00   2.898535940047748e+00  -2.053020000000032e-01  1.80925194e+00   1.20080484e+00  -1.73594920e-01
C     8.588881091499999e+00   2.187600641250825e+00  -2.068727999999993e-01  3.53232670e-01   1.24971669e+00   4.23999900e-01
C     9.843813774699999e+00   2.917303489621321e+00  -6.270359999999897e-02 -1.10247001e+00  -1.90041020e+00  -4.40904360e-01
C     1.225906672230000e+01   4.328822244810263e+00   1.529478000000000e-01  1.64848952e+00  -8.28431500e-02  -8.16461290e-01
C     3.646354060100000e+00   5.043506681548535e+00   6.132180000000000e-02  2.72967000e-03  -1.51356660e-01  -4.18321520e-01
C     4.859706679600000e+00   4.301383927824984e+00  -1.425479999999979e-02  2.22869303e+00   1.97042581e+00  -8.65244510e-01
C     6.159262518299999e+00   5.041294053152958e+00  -2.227397999999994e-01 -2.61104864e+00   1.96391660e-01   6.52817270e-01
C     7.389550180800000e+00   4.364396018640258e+00  -2.257928999999983e-01 -1.24818636e+00  -1.77800468e+00  -1.15257530e-01
C     8.599820810799999e+00   5.060713043836049e+00  -2.203923000000003e-01  9.79028290e-01  -5.47494440e-01   3.39148380e-01
C     9.812888574900001e+00   4.294289290967676e+00  -5.156159999999943e-02  9.47715950e-01   2.89654780e+00  -1.19434870e-01
C     1.107281416490000e+01   5.037119843269914e+00   5.496480000000000e-02 -2.24169653e+00  -6.40038400e-02   2.19157360e-01
C     1.351657114000000e+01   6.463181131037031e+00  -1.279149000000004e-01  1.89330900e-02   3.65814350e-01   1.25838639e+00
C     4.894564836199999e+00   7.171666416947032e+00  -1.581110999999993e-01 -3.90615220e-01   4.29716420e-01  -8.66153900e-01
C     6.103892455799999e+00   6.476697189165403e+00  -2.751774000000005e-01  1.88294740e+00  -1.14343668e+00   3.29059280e-01
C     7.382076350099999e+00   7.171737376124121e+00  -3.137307000000007e-01 -1.55128993e+00  -6.63922100e-02   2.82426250e-01
C     8.603538129399999e+00   6.483361886845043e+00  -2.695556999999980e-01  7.03106030e-01  -6.57371730e-01   4.17994840e-01
C     9.843566485900000e+00   7.182431632849273e+00  -1.525298999999976e-01 -4.22072850e-01   1.72227580e-01  -3.11180090e-01
C     1.105389987480000e+01   6.455728453470296e+00   2.336700000000000e-02  8.28064200e-01   1.18312029e+00  -9.02806530e-01
C     1.230222655520000e+01   7.217918650332790e+00  -7.173359999999818e-02 -9.74031940e-01  -2.32805574e+00   3.54876920e-01
