32
Lattice="9.736 0 0 4.868 8.43162333124529 0 0 0 30 " PBC="1 1 1" Properties=species:S:1:pos:R:3:force:R:3 Energy="-257.57607337"
C     1.374163467773055e-02  -1.288889138822204e-02   2.991757779157711e+00 -1.04331051e+00   7.11460470e-01   1.11846100e-02
C     1.208396424687004e+00   6.984101917425516e-01   2.996156237503333e+00  8.40478180e-01   3.99593280e-01   3.76022600e-02
C     2.426402023385267e+00   1.597935636373483e-03   2.996517926451935e+00  6.38942990e-01   1.05407590e-01   8.54829200e-02
C     3.664646453331803e+00   6.967014989337711e-01   3.002621978830700e+00 -1.37564259e+00   9.50598690e-01  -9.63258800e-02
C     4.868582984733535e+00   1.150294314143128e-02   3.006621653994998e+00  9.96639800e-02  -1.27111403e+00  -1.51832770e-01
C     6.084550469882975e+00   6.890121880493073e-01   2.999880600968190e+00  1.49815910e-01   1.14310037e+00  -4.40803300e-02
C     7.299006601259308e+00   1.414093778247195e-03   2.995784665354231e+00  5.13932700e-01  -3.50923000e-03  -3.63946100e-02
C     8.528477515217311e+00   7.016077950367948e-01   2.992918360319156e+00 -1.87837670e-01  -1.07429680e-01   5.27017700e-02
C     1.227724539375639e+00   2.108154934198738e+00   3.008755318442820e+00 -1.12258787e+00  -1.28557370e-01  -5.98568700e-02
C     2.424999536695243e+00   2.818651865223956e+00   2.999073076597428e+00  5.45775310e-01  -4.32597270e-01  -2.90079500e-02
C     3.639137899752325e+00   2.116257762633204e+00   2.987857021446941e+00  6.61071470e-01  -6.95085710e-01   1.97681950e-01
C     4.872291390150147e+00   2.799657426095817e+00   3.003809258554008e+00 -7.58202280e-01   6.14690450e-01  -2.22944090e-01
C     6.079223685728793e+00   2.111470310385790e+00   2.988039002209983e+00  1.80366080e-01  -1.08204820e+00   2.53632560e-01
C     7.287998518775759e+00   2.803453584500127e+00   3.011382177842935e+00  1.04578480e+00   2.45084140e-01  -1.59663330e-01
C     8.528269365130667e+00   2.110013395643330e+00   3.007729735378979e+00 -7.86672790e-01  -3.99931440e-01   1.83734400e-02
C     9.733165734106530e+00   2.809014621489017e+00   3.013933532877094e+00  6.28278820e-01   2.87105020e-01  -1.09980730e-01
C     2.432008064867567e+00   4.213566677441590e+00   2.997295350067090e+00  3.22505950e-01   3.64562390e-01  -7.04976100e-02
C     3.653476393954790e+00   4.921518262323691e+00   2.991745378643396e+00 -6.42539100e-02  -4.65944830e-01   9.36836200e-02
C     4.873199494434912e+00   4.209152248143942e+00   2.997895880956333e+00 -4.57495250e-01   8.46620100e-02   1.72812900e-02
C     6.076498603363645e+00   4.916087349517463e+00   3.000824006927150e+00  7.78477860e-01  -2.54943020e-01   5.34917300e-02
C     7.306894081753206e+00   4.206071410095652e+00   3.005092591584732e+00 -2.48430100e-01   6.26274940e-01   6.41700000e-02
C     8.527024213391121e+00   4.928212816321775e+00   3.003927085342961e+00 -5.00904020e-01  -7.24284080e-01  -7.22604800e-02
C     9.740927411312841e+00   4.220014270901816e+00   2.994550787440714e+00 -1.05467670e-01  -1.54596540e-01   1.10558900e-01
C     1.096033425589696e+01   4.910267396138011e+00   2.988818075830603e+00 -1.69915490e-01   9.23939640e-01   1.63201070e-01
C     3.644275426338485e+00   6.320227736608759e+00   2.997693990794641e+00  1.01709620e-01   3.26344310e-01  -9.60561500e-02
C     4.862228624228500e+00   7.028163550836012e+00   2.995335425126382e+00  1.50801310e-01  -7.45707110e-01   4.36327400e-02
C     6.075746066192784e+00   6.316870837633712e+00   3.007809104836438e+00  3.28489220e-01   4.94051740e-01  -6.28542500e-02
C     7.298222471931831e+00   7.036696136849069e+00   3.009321862646645e+00 -3.45937660e-01  -7.07022790e-01  -1.12485370e-01
C     8.514879732943037e+00   6.326704232093897e+00   2.996140816556013e+00 -4.00920300e-02   1.74881240e-01   1.80322300e-02
C     9.727124436551552e+00   7.022261457877097e+00   2.984090783633277e+00  6.91079750e-01   5.34431880e-01   2.95874780e-01
C     1.096543027541445e+01   6.335734008021869e+00   3.007818614238854e+00 -1.29764507e+00  -9.94172180e-01  -3.27401700e-01
C     1.216088744236181e+01   7.028387390123056e+00   2.992465481769680e+00  8.27220970e-01   1.80755310e-01   1.35056260e-01
