32
Lattice="9.86 0 0 4.93 8.53901048131456 0 0 0 30 " PBC="1 1 1" Properties=species:S:1:pos:R:3:force:R:3 Energy="-255.70392513"
C     9.828905158900000e+00   1.380222598658904e-01   3.860621100000000e+00  2.18798113e+00  -2.15721068e+00   8.25351500e-02
C     1.230385670900000e+00   8.300709752831495e-01   3.759948600000000e+00 -2.14998560e+00   6.34738370e-01  -3.60200000e-04
C     2.415420271800000e+00   1.466378652698960e-01   4.033829400000000e+00 -1.74234460e-01  -6.26369100e-01  -8.47188700e-02
C     3.646722873400000e+00   8.151269384322064e-01   4.039672500000000e+00  7.60174430e-01   5.44183490e-01  -2.81318350e-01
C     4.858908512600000e+00   9.395831869584159e-02   4.151976900000000e+00  2.80301701e+00   1.08345799e+00  -9.51481880e-01
C     6.124764498200000e+00   8.183266764392720e-01   4.011658500000000e+00  1.98180860e-01   6.82148570e-01   7.36969340e-01
C     7.418771572600000e+00   1.038948236309984e-01   3.964315200000001e+00 -2.86613580e+00   1.40311626e+00  -1.18897100e-01
C     8.639361234899999e+00   8.406521755095464e-01   3.864095700000000e+00 -1.30867703e+00  -1.00265944e+00  -6.66269550e-01
C     1.105095804520000e+01   2.240812936688727e+00   3.520343400000000e+00 -7.40630600e-02   6.34321420e-01   6.66336410e-01
C     2.427714903000000e+00   2.938104262980286e+00   3.635211600000000e+00  6.16881960e-01   1.03597714e+00  -1.41752120e-01
C     3.682342567100000e+00   2.216231601829846e+00   3.826786800000000e+00 -1.15254965e+00   1.36208530e+00   9.42769900e-02
C     4.888588493000000e+00   2.984182300552253e+00   3.913502100000000e+00  4.77079800e-02  -1.54983035e+00   3.96201470e-01
C     6.111031440900000e+00   2.300038061746225e+00   4.053404700000000e+00  8.74136260e-01  -3.26529095e+00  -6.35736410e-01
C     7.372628300900000e+00   2.924574457045041e+00   4.021655400000000e+00  5.96088100e-02   2.89293995e+00  -7.09416340e-01
C     8.606246424900000e+00   2.227509243750991e+00   3.705233400000000e+00 -9.91628430e-01   2.19583123e+00   1.24102371e+00
C     9.790108967600000e+00   2.996319820828734e+00   3.522561600000000e+00  1.45076425e+00  -3.96718240e-01   9.41355550e-01
C     1.229389495380000e+01   4.401348074151828e+00   3.665013600000000e+00  1.35291792e+00  -8.24927680e-01   2.40047180e-01
C     3.708067898700000e+00   5.090111746847327e+00   3.934008000000000e+00 -2.73434827e+00  -5.87269300e-02  -9.04944000e-01
C     4.917415090400000e+00   4.369587053891260e+00   3.962385600000000e+00 -1.29915761e+00   1.06003255e+00   1.10252684e+00
C     6.087043046900000e+00   5.076086080573508e+00   4.279312800000000e+00  2.05624044e+00  -2.16176860e-01  -1.08809154e+00
C     7.334678984999999e+00   4.427979540036852e+00   4.144086000000000e+00  2.54256011e+00  -2.75369998e+00   4.76006400e-02
C     8.632433007300000e+00   5.121691740085721e+00   4.087706400000000e+00 -1.82068898e+00   4.18544090e-01  -6.10076530e-01
C     9.840514963800000e+00   4.438017317636302e+00   3.732086400000000e+00 -9.73120380e-01  -1.19840864e+00  -3.99312940e-01
C     1.107360192960000e+01   5.146301936800024e+00   3.636776100000000e+00  1.87768380e-01  -1.42894013e+00   1.30823685e+00
C     1.349357273930000e+01   6.510603123468444e+00   4.023180300000000e+00  1.79648102e+00   3.32399490e-01  -9.95630820e-01
C     4.908283547200000e+00   7.213160201352705e+00   4.021347900000000e+00 -8.21986030e-01   5.73334410e-01   9.57328570e-01
C     6.133689720900000e+00   6.470308045353953e+00   4.277971200000001e+00 -1.16455266e+00   3.46593422e+00  -1.06568160e+00
C     7.325757558399999e+00   7.290999429965451e+00   4.231917900000000e+00  1.65410324e+00  -2.80350395e+00  -1.96963100e-02
C     8.619083504000001e+00   6.566160060403944e+00   4.163304000000000e+00 -1.17637065e+00  -9.03711440e-01   3.88175430e-01
C     9.863481368799999e+00   7.225966155369561e+00   4.100874900000000e+00 -1.16330121e+00   1.89131380e-01  -7.36933000e-03
C     1.108512674130000e+01   6.517168597846306e+00   3.925321500000000e+00 -1.61537413e+00   7.32923930e-01  -5.77825130e-01
C     1.225995096710000e+01   7.237375554222413e+00   3.898666200000000e+00  2.89765015e+00  -5.49254000e-02   1.05596491e+00
