26
Lattice="8.88768389401873 1.33226762955019e-15 0 4.44384194700937 7.69696003302603 0 0 0 30 " PBC="1 1 1" Properties=species:S:1:pos:R:3:force:R:3 Energy="-209.05971938"
C     6.450058834347714e-01   7.478387916636083e-01   3.717809400000000e+00 -2.16298070e-01  -1.45542766e+00  -4.50836100e-01
C     3.023122300678144e+00   1.589791700276440e-01   3.837574200000000e+00  9.92322110e-01  -5.32541700e-02  -5.57795280e-01
C     4.401979087840718e+00   5.791723816814071e-01   3.737296500000000e+00  7.27756950e-01  -2.01888811e+00  -3.30441480e-01
C     9.906392221917908e+00   7.261669770034594e+00   3.562571400000000e+00 -1.07935105e+00   1.53650378e+00   2.03396600e-02
C     6.826692298573547e+00   7.359833180685999e-04   3.467412000000000e+00 -1.14470301e+00  -1.00711013e+00   4.97500930e-01
C     1.224010714803165e+01   6.663281234911890e+00   3.485943600000000e+00  1.25198182e+00   1.78977110e-01  -1.09103400e-02
C     4.723745022325413e+00   7.039673587031732e+00   3.592249500000000e+00  7.59612000e-01   1.11271968e+00   4.17905540e-01
C     5.772900020918027e+00   6.077104850511983e+00   3.628299600000000e+00 -3.54260220e-01  -3.70515080e-01  -1.16515780e-01
C     7.145402780664143e+00   6.479748300570944e+00   3.694778700000000e+00  1.41928400e-02  -1.27221240e-01  -2.01124000e-02
C     8.194902976892797e+00   5.507559749466500e+00   3.574902000000000e+00 -1.53621990e+00  -6.40843500e-02   1.79992400e-02
C     9.541295854402204e+00   5.891696782768529e+00   3.515367900000000e+00  7.69442750e-01  -6.17708510e-01   4.49937380e-01
C     1.053745279401734e+01   4.852368726896799e+00   3.542998500000000e+00  1.34632228e+00   1.31554165e+00  -3.90217980e-01
C     1.191985478941301e+01   5.282127874415047e+00   3.502003500000000e+00 -9.06630710e-01  -8.55311620e-01   5.29579110e-01
C     4.052201846639423e+00   4.277907346571354e+00   3.604972800000000e+00  2.88124000e-02   7.41918920e-01  -2.23558490e-01
C     5.420380126042359e+00   4.691599013057377e+00   3.568242000000000e+00  3.85492180e-01  -6.10074000e-02   2.27061340e-01
C     6.463979966685981e+00   3.713042305102512e+00   3.547849500000000e+00 -6.01959830e-01   6.76492500e-01  -3.31108630e-01
C     7.824677926946758e+00   4.132674485339688e+00   3.517586400000000e+00  6.52450180e-01  -9.69435480e-01   2.94598530e-01
C     8.845423266196587e+00   3.116653440195601e+00   3.568057500000000e+00  6.07817700e-01   7.36354900e-02   5.88539300e-02
C     1.023180347773222e+01   3.475543751872828e+00   3.623336100000000e+00 -1.20727635e+00   7.24272380e-01   2.14489550e-01
C     2.350821675445934e+00   2.497689006672699e+00   3.794070600000000e+00  2.50169710e-01   4.14956290e-01  -4.18702070e-01
C     3.711263670400135e+00   2.901091223051417e+00   3.730318500000000e+00  4.09052420e-01   3.49295470e-01  -1.17491680e-01
C     4.763201802761937e+00   1.934602193879588e+00   3.688780500000000e+00 -7.99656840e-01   3.35728010e-01  -1.67679940e-01
C     6.101227814675156e+00   2.346226456901552e+00   3.508619400000000e+00  1.68716192e+00  -4.90466800e-01   7.28368840e-01
C     7.174647967817883e+00   1.373859644202814e+00   3.511215900000000e+00 -1.20964277e+00  -5.27714930e-01  -2.23306890e-01
C     8.538915444076382e+00   1.724838250665203e+00   3.588327300000000e+00 -1.02034831e+00   1.36692201e+00   1.78089800e-02
C     1.997174955581959e+00   1.133254443965821e+00   3.843456600000000e+00  1.93759800e-01  -2.08817830e-01  -1.15765970e-01
