32
Lattice="9.86 0 0 4.93 8.53901048131456 0 0 0 30 " PBC="1 1 1" Properties=species:S:1:pos:R:3:force:R:3 Energy="-245.3205002"
C     5.479112520499999e+00   8.180141913507564e+00  -7.214561999999987e-01  4.64166717e+00   9.30640600e-01  -1.31442500e-01
C     1.914041736800000e+00   2.449411740583808e-01  -8.058252000000010e-01 -2.63125436e+00   4.19695693e+00   1.31452072e+00
C     8.076204771299999e+00   8.250197834067789e+00  -8.994056999999991e-01  1.95463978e+00  -5.90264615e+00   3.20421680e-01
C     4.431002309899999e+00   3.911306558879720e-01  -7.655543999999992e-01 -4.38433478e+00  -1.60742375e+00   9.44453190e-01
C     1.052181404600000e+01   8.162986614502721e+00  -5.696993999999975e-01 -9.22183520e-01  -2.12623351e+00  -2.19805014e+00
C     6.758593694999999e+00   2.982155481024720e-01  -5.538750000000014e-01  2.25000617e+00   2.07873019e+00  -1.37593605e+00
C     1.290129018080000e+01   8.028056757282162e+00  -5.371965000000003e-01  1.33663620e+00   3.49762765e+00   1.07706724e+00
C     9.258696034500000e+00   3.273012109895528e-01  -6.412169999999975e-01 -4.91947542e+00   1.40146295e+00  -5.89307200e-02
C     1.869320079900000e+00   1.657943923878642e+00  -3.301704000000001e-01 -2.82601373e+00  -5.64623030e-01  -3.26936560e-01
C     2.881885138400000e+00   2.472967284113726e+00   1.679400000000000e-02  7.79402122e+00  -5.48486282e+00  -3.01910851e+00
C     4.229239151200000e+00   1.703687829970526e+00  -4.527132000000016e-01  2.42767266e+00   5.10460082e+00   1.89137784e+00
C     5.512268693199999e+00   2.520889918729583e+00  -4.558551000000008e-01 -2.23481250e+00  -1.74122489e+00  -1.39263383e+00
C     6.702596536500000e+00   1.829566421472389e+00  -7.878705000000004e-01  6.05273900e-01  -3.73015678e+00   2.43963449e+00
C     7.968337702400000e+00   2.425928266302341e+00  -6.610370999999979e-01 -1.03323182e+00   4.68490717e+00  -2.02136580e-01
C     9.184989625800000e+00   1.842473733543643e+00  -6.199979999999989e-01  3.32470734e+00  -6.16728313e+00   6.25298130e-01
C     1.052529004110000e+01   2.366072962271418e+00  -2.185109999999995e-01 -6.64248617e+00   1.16032276e+00  -1.15038316e+00
C     3.047916889600000e+00   3.802422562205467e+00   1.034868000000000e-01  2.20164842e+00   3.87574485e+00   1.37907510e+00
C     4.430490428000000e+00   4.575505633176878e+00   6.249600000000000e-02 -5.65132331e+00   2.45943854e+00   8.79404720e-01
C     5.486251505600000e+00   3.959541038158306e+00  -3.747593999999985e-01  1.98227639e+00  -5.76865973e+00  -1.55682190e-01
C     6.703594516400000e+00   4.531153158842710e+00  -4.931814000000010e-01  8.59194530e-01   5.02265709e+00  -9.06273060e-01
C     7.886765626600000e+00   3.911928711183293e+00  -5.741915999999989e-01  3.90640070e+00  -1.82182247e+00   1.18264930e+00
C     9.085127052799999e+00   4.711547781902562e+00  -2.694864000000017e-01  3.29423860e+00  -6.94333108e+00  -9.59616180e-01
C     1.024237222970000e+01   3.724428179772300e+00   2.670870000000000e-02  5.69503408e+00   4.44986744e+00  -3.14818630e-01
C     1.174846746040000e+01   4.500417332180370e+00   1.576314000000000e-01 -6.28825125e+00   2.61909191e+00  -2.38187072e+00
C     4.516964205600000e+00   6.007816878884621e+00   1.535922000000000e-01 -5.00706744e+00   2.17438440e+00  -3.11394805e+00
C     5.566549127100000e+00   6.876015731422438e+00  -4.196477999999999e-01  1.33349812e+00  -8.56825924e+00   1.67663416e+00
C     6.856888034999999e+00   5.951045609268760e+00  -5.744918999999982e-01 -4.88827320e-01   4.91529464e+00  -1.58180800e-01
C     8.161245693700000e+00   6.690573699267858e+00  -8.007038999999985e-01 -3.20250165e+00   1.43155714e+00  -2.28033380e-01
C     9.414745916099999e+00   5.999360099075544e+00  -6.912294000000010e-01 -7.01334053e+00  -4.46583650e-01   4.42116990e-01
C     1.054500575200000e+01   6.682430301143397e+00  -7.262109000000017e-01  2.62596803e+00   2.21795677e+00   2.02624947e+00
C     1.166790421050000e+01   5.948396039706921e+00  -3.162176999999993e-01  2.02995576e+00  -1.72100700e+00   2.27038343e+00
C     1.283956727100000e+01   6.670358531247611e+00  -1.275051000000005e-01  4.98226474e+00   3.72875380e-01  -3.95305400e-01
