32
Lattice="9.86 0 0 4.93 8.53901048131456 0 0 0 30 " PBC="1 1 1" Properties=species:S:1:pos:R:3:force:R:3 Energy="-253.95740832"
C     5.024005190700001e+00   8.088760497394377e+00   1.870770000000000e-02 -1.99285041e+00  -2.11908170e-01  -1.44711116e+00
C     1.261163020000000e+00   3.118446627296000e-01  -1.048878000000002e-01  3.28258574e+00  -1.02475845e+00   8.38685640e-01
C     7.476496351000000e+00   8.153130205485866e+00   1.565700000000000e-03 -2.47711500e-01  -2.20948966e+00  -1.58090597e+00
C     3.761711080800000e+00   2.789351455594704e-01  -2.362008000000024e-01  1.32909724e+00  -7.42257290e-01  -1.39533260e-01
C     9.986425363700000e+00   8.062145767969893e+00  -3.301547999999990e-01 -2.55003151e+00   2.07531287e+00   1.26645383e+00
C     6.230248750200000e+00   2.677960063883104e-01  -1.752752999999991e-01  2.08067243e+00  -3.00184543e+00  -8.54775820e-01
C     1.239200175660000e+01   7.997065101865839e+00  -2.442884999999997e-01  1.29151477e+00   3.90876564e+00  -2.54461230e-01
C     8.717658459599999e+00   2.480732831024448e-01  -1.436132999999984e-01 -3.25561880e-01  -5.19767000e-02   1.39893907e+00
C     1.317087362400000e+00   1.725918631414578e+00  -3.335621999999994e-01  4.37962930e-01  -1.14620879e+00   4.13874500e-01
C     2.523793750300000e+00   2.405958167882869e+00  -6.206931000000004e-01  1.99618006e+00  -7.87292130e-01   2.04412460e-01
C     3.785837071100000e+00   1.671480646412377e+00  -4.739597999999994e-01  6.22764020e-01   8.71197360e-01   5.96121690e-01
C     5.072975570900000e+00   2.354707710102748e+00  -3.577875000000006e-01 -1.77412091e+00   1.21430380e+00  -6.23977150e-01
C     6.312920708999999e+00   1.655181127037838e+00  -1.124790000000004e-01 -1.96224989e+00   1.19262444e+00  -4.27406600e-01
C     7.510678308799999e+00   2.379808899919651e+00  -2.278499999999894e-02  1.07658533e+00   1.76405950e+00  -2.76722610e-01
C     8.778088328999999e+00   1.708229388084419e+00  -2.693580000000040e-02 -2.30785560e+00  -2.01044830e+00  -3.39268400e-02
C     9.988592443799998e+00   2.411525175765306e+00  -1.472786999999975e-01 -1.62800748e+00   1.17676939e+00  -1.68755549e+00
C     2.556706972600000e+00   3.799012764540593e+00  -8.868243000000007e-01 -4.34931470e-01   1.35950010e+00   2.47079550e-01
C     3.790175766900000e+00   4.570682885447879e+00  -8.160845999999999e-01  1.24760130e+00  -2.69007434e+00   1.06177985e+00
C     5.028649793000000e+00   3.820488888238422e+00  -4.883283000000027e-01 -2.99398934e+00  -2.77771687e+00  -8.40456740e-01
C     6.199394345200000e+00   4.444989590473432e+00  -3.059373000000001e-01  2.53381666e+00   4.94919957e+00   1.41174050e+00
C     7.455944512099999e+00   3.858438044003743e+00  -8.454000000000050e-02  8.18651100e-02  -3.37106418e+00  -6.23176100e-01
C     8.668440642700000e+00   4.548037429654920e+00  -2.398197000000017e-01  1.51801284e+00  -5.32592870e-01   1.02608700e-02
C     9.866388195399999e+00   3.784656980121617e+00  -4.777974000000000e-01  2.87979456e+00   1.79545209e+00   1.91642900e-02
C     1.117107621340000e+01   4.508420946703274e+00  -8.950403999999992e-01 -2.84891339e+00   4.57528820e-01   2.27930243e+00
C     3.820556990500000e+00   5.955633704989769e+00  -6.295310999999977e-01 -5.19926640e-01   8.22035380e-01   9.38641040e-01
C     4.969784311200000e+00   6.647761747814387e+00  -1.145487000000003e-01  2.64232488e+00  -5.18829510e-01  -1.40107490e+00
C     6.216709787000000e+00   5.911130346340419e+00  -1.549703999999998e-01  1.62720620e+00   8.83591850e-01   3.57042900e-01
C     7.587684514399999e+00   6.652261635557138e+00  -4.868369999999800e-02 -6.03511101e+00   1.87791708e+00   4.99430450e-01
C     8.751408993100000e+00   5.963842255764193e+00  -1.664102999999990e-01  6.29776200e-01  -7.23258640e-01  -1.03274007e+00
C     9.975932795400000e+00   6.657180617934246e+00  -3.783329999999978e-01 -1.20449122e+00   3.48420120e-01  -9.30769200e-02
C     1.110305833450000e+01   5.967552626597962e+00  -7.191116999999991e-01  4.98658651e+00  -1.93294787e+00  -5.48479950e-01
C     1.246214234560000e+01   6.668308827171992e+00  -6.349440000000008e-01 -3.43859455e+00  -9.64008790e-01   3.22451740e-01
