32
Lattice="9.86 0 0 4.93 8.53901048131456 0 0 0 30 " PBC="1 1 1" Properties=species:S:1:pos:R:3:force:R:3 Energy="-257.28071763"
C     5.090393260900000e+00   6.702151572797481e+00  -4.284594000000013e-01 -4.73200480e-01  -8.89830100e-02   1.11497180e-01
C     6.325021886999999e+00   7.413876303113280e+00  -3.372729000000021e-01 -8.98527320e-01  -3.11666310e-01  -3.07399400e-01
C     7.525364828100000e+00   6.708161499153515e+00  -3.537846000000009e-01  1.23809835e+00  -2.11701500e-01   2.75055200e-01
C     8.758142534999999e+00   7.435061246553740e+00  -3.366198000000011e-01 -3.64538200e-02  -4.09802310e-01  -4.92428100e-01
C     9.992249468499999e+00   6.739833372144672e+00  -3.855830999999981e-01 -7.97563850e-01  -1.88869614e+00   1.96802480e-01
C     1.120182871530000e+01   7.410764943864683e+00  -4.452029999999993e-01  1.58769487e+00   2.03374340e-01   2.04049630e-01
C     1.242738658510000e+01   6.670621959720919e+00  -4.303184999999985e-01  2.12832881e+00   2.03276847e+00  -5.19790850e-01
C     1.373024503080000e+01   7.401388341846698e+00  -4.696986000000010e-01 -2.16423550e+00   5.17478690e-01   4.63332340e-01
C     1.404498579500000e+00   2.772714901476520e-01  -2.586404999999985e-01 -1.23442079e+00   5.90473410e-01   4.30143120e-01
C     2.604345217500000e+00   1.000143130134148e+00  -2.219960999999984e-01  7.91563640e-01   6.39871520e-01  -6.86528680e-01
C     3.831544481499999e+00   3.036046030065048e-01  -3.740993999999986e-01  8.67687730e-01   3.53683910e-01   6.22737210e-01
C     5.108406149800000e+00   1.007086626505960e+00  -4.186298999999991e-01 -2.32515946e+00  -8.15568100e-02   3.72903280e-01
C     6.306579003500000e+00   2.884077260552488e-01  -4.301060999999997e-01  8.46965960e-01   6.27087960e-01   7.44078900e-02
C     7.538325157199998e+00   1.019853130294398e+00  -3.395837999999998e-01  6.99313220e-01  -4.91957830e-01  -3.55818840e-01
C     8.784554369099999e+00   3.155305266032920e-01  -3.932939999999974e-01 -4.61253170e-01  -1.70081013e+00   7.70236410e-01
C     1.001222967390000e+01   9.776780182425256e-01  -2.026862999999999e-01 -3.43602300e-02   1.01875634e+00  -1.00004317e+00
C     2.607054893400000e+00   2.434132206011105e+00  -2.364587999999976e-01 -1.01572633e+00  -4.71231220e-01  -8.93453900e-02
C     3.803737210900000e+00   3.134455478753799e+00  -3.470966999999980e-01  2.13933240e+00   3.56604830e-01  -1.28636590e-01
C     5.056210366399999e+00   2.419500099212997e+00  -3.755448000000001e-01  1.17808564e+00   5.75865210e-01  -5.19304000e-01
C     6.328899972900000e+00   3.126215333640599e+00  -4.302734999999984e-01 -1.53709258e+00   8.68604310e-01   8.73283680e-01
C     7.567036984200000e+00   2.442412655253771e+00  -2.725787999999980e-01 -1.30524069e+00  -1.05599140e-01  -7.43884590e-01
C     8.775526454500000e+00   3.174093053061330e+00  -2.284481999999990e-01  3.62534960e-01  -1.26998043e+00  -1.48420530e-01
C     9.971255211399999e+00   2.407697991268170e+00  -2.156900999999998e-01  2.12957240e+00   1.19588181e+00   4.76833700e-01
C     1.124294338700000e+01   3.152927493174659e+00  -2.281016999999999e-01 -1.34131309e+00  -7.62473460e-01  -9.05504000e-02
C     3.847909468599999e+00   4.561968569082724e+00  -4.272917999999990e-01 -1.27441301e+00  -1.23829340e-01   3.40390970e-01
C     5.052818772899999e+00   5.274635323034677e+00  -4.294235999999998e-01  1.05354134e+00   7.11763700e-02  -4.06546970e-01
C     6.279688811500000e+00   4.566869534147721e+00  -4.419752999999993e-01  1.84318622e+00  -2.91949830e-01   4.92608290e-01
C     7.544710542499999e+00   5.296016151375549e+00  -3.576623999999988e-01 -6.61685090e-01  -9.67966440e-01  -1.28990270e-01
C     8.799107581199999e+00   4.584683020080363e+00  -2.778168000000001e-01 -1.56749229e+00   1.80254250e-01  -1.72622790e-01
C     1.000580825030000e+01   5.283532118053789e+00  -3.120873000000017e-01  5.82520330e-01   1.24452669e+00  -1.58706670e-01
C     1.123804138940000e+01   4.574568049826174e+00  -3.153134999999985e-01 -1.14600410e-01  -4.09250090e-01   7.85936100e-02
C     1.246947788980000e+01   5.282128902461610e+00  -4.060820999999990e-01 -2.05687740e-01  -8.88954140e-01   1.66142260e-01
