32
Lattice="9.86 0 0 4.93 8.53901048131456 0 0 0 30 " PBC="1 1 1" Properties=species:S:1:pos:R:3:force:R:3 Energy="-254.97077861"
C     5.119141323399999e+00   7.794964484946038e+00  -1.114060500000001e+00  1.33015170e-01   3.36829612e+00   7.92160550e-01
C     6.351076296100000e+00   8.473068056958304e+00  -9.551084999999979e-01  9.86048100e-01   3.42999840e+00  -1.32876546e+00
C     7.671693045500000e+00   7.851629102321004e+00  -1.014809399999997e+00 -3.60783207e+00   6.91717560e-01   4.65866110e-01
C     3.903016022600000e+00   2.426035345493760e-02  -1.022121599999998e+00  2.69865887e+00   1.08074150e+00   2.16920610e-01
C     1.009027901820000e+01   7.812881549075803e+00  -1.004933400000002e+00  1.29311560e-01   1.16324268e+00  -5.48016590e-01
C     6.415175170099999e+00   2.389138281209680e-02  -1.024341000000000e+00 -3.62722418e+00  -6.46667630e-01  -7.41778250e-01
C     1.252442367650000e+01   7.830226243333093e+00  -1.143648599999999e+00  6.70198920e-01   4.05763224e+00   1.22375372e+00
C     8.814221777999999e+00   4.511756967317600e-02  -1.052595300000000e+00  1.34583360e-01  -2.79270866e+00  -6.93346910e-01
C     1.363973930200000e+00   1.422143504368787e+00  -1.017060000000001e+00 -1.13764850e-01   8.27732900e-02   2.36322930e-01
C     2.581793967799999e+00   2.245754803613921e+00  -1.070894700000000e+00  1.21888721e+00  -4.91272323e+00  -3.54249000e-01
C     3.875689722800000e+00   1.458081637775963e+00  -1.062189000000000e+00 -1.48497324e+00   1.64643246e+00  -1.69251240e-01
C     5.081736131600000e+00   2.212596972019034e+00  -1.121268300000001e+00  1.20887511e+00  -1.93469048e+00   4.85079530e-01
C     6.325795995600000e+00   1.440221443455995e+00  -1.052555099999999e+00 -1.91406759e+00  -4.35442270e-01  -6.12295600e-02
C     7.503356667200000e+00   2.101420080250691e+00  -9.939170999999973e-01  1.10436261e+00   4.19294733e+00   4.07499760e-01
C     8.727248147699999e+00   1.430916739906253e+00  -9.783353999999989e-01  1.16261398e+00  -1.22199950e-01  -2.25106990e-01
C     9.934038296299999e+00   2.133342402419228e+00  -1.011328199999998e+00  3.35417284e+00  -5.08212220e-01   5.08574300e-01
C     2.626520653300000e+00   3.620495442934770e+00  -1.225382400000001e+00  8.81089930e-01  -4.48001010e-01   6.52482960e-01
C     3.873522445500000e+00   4.303311267880424e+00  -1.208831700000001e+00  2.00665350e-01   2.00373611e+00   1.46084982e+00
C     5.139594020000000e+00   3.618517722717498e+00  -1.126896899999998e+00 -1.09039322e+00   1.36051754e+00  -3.39334610e-01
C     6.384756429199999e+00   4.393435314700432e+00  -1.037617200000000e+00 -1.52176624e+00  -3.27040108e+00   7.37607200e-02
C     7.519135970300000e+00   3.585023881060222e+00  -9.249423000000014e-01  3.56866697e+00   5.38038100e-02  -2.13790470e-01
C     8.888650875400000e+00   4.301460095798466e+00  -8.996607000000019e-01 -4.62876991e+00  -1.53583273e+00  -5.60375870e-01
C     1.004316645920000e+01   3.534830638167628e+00  -9.588041999999994e-01  9.15601340e-01   1.67260407e+00  -7.82474450e-01
C     1.128172868300000e+01   4.299182058582611e+00  -1.136963999999999e+00 -8.84190810e-01  -6.09226260e-01   2.24956710e-01
C     3.819793530700000e+00   5.771315235834148e+00  -9.677016000000016e-01  3.23810464e+00  -2.25683504e+00  -2.92567798e+00
C     5.146451107699999e+00   6.428175713744585e+00  -1.171900800000000e+00 -3.39530147e+00  -9.37199740e-01   1.68091005e+00
C     6.360745455800000e+00   5.779159768591810e+00  -1.066147500000000e+00  2.23197638e+00   2.90903710e-01   5.10186000e-02
C     7.647422458299999e+00   6.487593905829036e+00  -9.934389000000010e-01 -1.02893049e+00  -3.51727483e+00  -6.52056270e-01
C     8.838870496199998e+00   5.693966573373478e+00  -1.030437300000003e+00  9.28640860e-01   9.69489050e-01   5.24396640e-01
C     1.009998283580000e+01   6.376840634370607e+00  -1.086076200000001e+00 -1.73678989e+00   1.86678280e+00   2.69508810e-01
C     1.131207278370000e+01   5.703709669721263e+00  -1.150751100000001e+00 -1.07967457e+00   2.03690700e-01   6.32746690e-01
C     1.247894674360000e+01   6.493572152456189e+00  -1.062859499999998e+00  1.34820532e+00  -4.20789424e+00  -3.11354860e-01
