32
Lattice="9.804 0 0 4.902 8.49051305870264 0 0 0 30 " PBC="1 1 1" Properties=species:S:1:pos:R:3:force:R:3 Energy="-257.90958035"
C    -1.468775449681141e-03   1.944837577340762e-03   3.007002263756719e+00 -2.96937240e-01  -3.71569610e-01  -8.29292500e-02
C     1.220143377267170e+00   7.105530010512552e-01   2.996705300349377e+00 -1.71669320e-01   2.57591020e-01   2.83506000e-02
C     2.441968766277365e+00   4.233460259429714e-03   3.000848895016885e+00  3.98897060e-01  -2.26621480e-01  -4.35100900e-02
C     3.677960054929597e+00   6.947890489441297e-01   3.009071193452106e+00 -1.19257750e-01   7.36576060e-01  -1.23635660e-01
C     4.904532651868726e+00   2.680176924504484e-03   2.995573382850231e+00 -1.84739040e-01  -4.92011030e-01   7.24053000e-02
C     6.133198305187324e+00   7.028501617419701e-01   3.006842233003817e+00 -5.78911860e-01   4.09201050e-01  -2.02930630e-01
C     7.343987898469075e+00  -5.213139772580110e-03   3.001331233718697e+00  5.61557410e-01   1.40412290e-01   9.92330700e-02
C     8.567653545502031e+00   7.119263775702064e-01   3.002888514458601e+00  4.57969250e-01  -3.23659690e-01  -3.94449000e-03
C     1.215175996196280e+00   2.132852956363142e+00   2.990754922436893e+00  6.87364570e-01  -2.91817950e-01   8.37352800e-02
C     2.455739284016460e+00   2.831458008098134e+00   3.002919911597801e+00 -3.57923610e-01  -4.11937200e-02  -3.59803000e-02
C     3.683016974327816e+00   2.116942165154688e+00   3.002067710730615e+00 -5.00980630e-01  -6.55473000e-03  -1.06725200e-02
C     4.895240871662377e+00   2.833402368277883e+00   2.986488220387238e+00  2.76231510e-01  -1.47498020e-01   1.06296360e-01
C     6.116307040235773e+00   2.122917567403118e+00   2.987314253155284e+00  9.21917010e-01   1.92840030e-01   2.10142800e-01
C     7.362509579519765e+00   2.838513733339485e+00   3.006952830024672e+00 -7.66833520e-01  -2.37384740e-01  -2.43411380e-01
C     8.584401097344307e+00   2.125593850911966e+00   2.997783605328056e+00 -4.38831380e-01   7.17875900e-02   5.01397200e-02
C     9.802710766796343e+00   2.840233875669413e+00   2.991168683778144e+00  6.10310000e-03  -2.99367170e-01   3.57834000e-02
C     2.445654608614750e+00   4.250304229300099e+00   3.004686854003452e+00  7.78652990e-01  -2.88080040e-01  -1.31332900e-01
C     3.690550539809424e+00   4.953835697743667e+00   2.995354121805491e+00 -1.12391926e+00  -4.39351700e-02   1.35876110e-01
C     4.900983950743436e+00   4.251703615593373e+00   2.999127482031321e+00 -1.81813500e-02  -6.55764370e-01  -5.43115300e-02
C     6.119288284951613e+00   4.940178421660380e+00   3.006022692334658e+00  4.67232660e-01   9.08064260e-01  -1.47781450e-01
C     7.346270925817437e+00   4.256638068149069e+00   2.991727296139165e+00  5.85319510e-01  -5.43342290e-01   1.62811310e-01
C     8.583075356793930e+00   4.961455239014907e+00   2.994526629226467e+00 -3.60953410e-01  -5.98087730e-01   5.81871300e-02
C     9.802681580946736e+00   4.245933226279202e+00   2.995663295844797e+00  1.11505100e-01   4.20889560e-01  -6.97360700e-02
C     1.103278618483325e+01   4.954311674383462e+00   2.991234521993960e+00 -2.08957590e-01   1.33411650e-01   8.03284400e-02
C     3.673763071878751e+00   6.361058063779592e+00   3.006364734320389e+00  2.90245800e-01   2.19371640e-01  -2.52872900e-02
C     4.903042330340480e+00   7.061528893342488e+00   3.006133762983603e+00 -2.08055700e-02   7.67545270e-01  -7.86462000e-03
C     6.131772768815271e+00   6.363378972842941e+00   2.997741751794052e+00 -1.00382190e-01  -4.06037100e-02   2.61825300e-02
C     7.356105416675398e+00   7.081919511470542e+00   2.988335383356957e+00 -1.70503660e-01  -4.96719320e-01   2.07148700e-01
C     8.585724952538341e+00   6.359933166726143e+00   3.006533605264515e+00 -4.97987990e-01   8.37112070e-01  -2.65726710e-01
C     9.793851571344860e+00   7.075286517316063e+00   2.986322629901549e+00  1.04609108e+00   2.69957700e-02   1.48364830e-01
C     1.104073658349799e+01   6.372879107019358e+00   2.990365461439886e+00 -1.03231200e+00  -2.87590450e-01   1.98712600e-02
C     1.225232528573605e+01   7.069832640007768e+00   3.005978934351969e+00  3.61000330e-01   2.70002960e-01  -7.58019600e-02
