32
Lattice="9.86 0 0 4.93 8.53901048131456 0 0 0 30 " PBC="1 1 1" Properties=species:S:1:pos:R:3:force:R:3 Energy="-254.56197763"
C     4.984433756900000e+00   8.425025022294681e+00  -4.314291000000026e-01 -7.68889670e-01  -2.34758525e+00  -6.14947900e-02
C     1.285120946600000e+00   5.376278836552624e-01  -3.853352999999977e-01  1.33622922e+00   1.98182346e+00  -8.71220870e-01
C     7.483315379100000e+00   8.351777902737869e+00  -4.088837999999981e-01 -1.06618060e+00   2.67336788e+00   8.03288840e-01
C     3.767493132700000e+00   5.699438542069272e-01  -3.981570000000012e-01 -1.32679758e+00   1.37920139e+00  -1.99164617e+00
C     9.901627934000000e+00   8.398749547756568e+00  -5.657850000000018e-01 -9.02850890e-01  -1.84060990e+00   1.58603210e-01
C     6.166594167800000e+00   5.076019903242288e-01  -5.761548000000012e-01  2.13825677e+00   4.07862781e+00   1.59347472e+00
C     1.236233434770000e+01   8.346065817067378e+00  -4.826960999999983e-01 -5.06487600e-02   4.93370143e+00  -8.31526190e-01
C     8.682813367500000e+00   5.795999380379209e-01  -3.991013999999993e-01 -6.38891370e-01  -7.95578080e-01  -3.22159710e-01
C     1.302685649200000e+00   2.017025453292450e+00  -5.762268000000006e-01 -3.93364048e+00  -2.44709091e+00   7.69568410e-01
C     2.458567336000000e+00   2.668162061697933e+00  -7.902813000000002e-01  2.45384706e+00   3.62252363e+00   2.86819830e-01
C     3.704267460300000e+00   2.050565747166737e+00  -6.452448000000004e-01 -6.49048310e-01  -3.90490921e+00   7.99810290e-01
C     4.889080999999999e+00   2.740335998417618e+00  -5.981859000000007e-01  2.69081394e+00   1.29005880e-01   5.27586990e-01
C     6.131209092799999e+00   2.039164887324365e+00  -4.212227999999989e-01  9.75940710e-01  -2.43024800e+00  -1.39591924e+00
C     7.383468335600000e+00   2.740412337171309e+00  -4.456404000000020e-01  7.47068300e-01  -1.89653156e+00   7.44956530e-01
C     8.674265388399998e+00   1.974076792281193e+00  -4.242927000000023e-01 -1.40725474e+00   2.68090763e+00   5.71558200e-02
C     9.880337088099999e+00   2.764491919774385e+00  -5.249604000000012e-01  1.43880846e+00  -3.46626361e+00  -7.63914880e-01
C     2.505164710000000e+00   4.154218864048053e+00  -8.881373999999980e-01 -4.56473500e-02  -2.12895975e+00  -6.85522900e-02
C     3.709740499800000e+00   4.849442554341985e+00  -8.125083000000011e-01  1.13934553e+00  -9.16527100e-02   3.67883400e-02
C     4.936544229900000e+00   4.138097809992546e+00  -6.193112999999997e-01  1.54235508e+00   2.39676637e+00  -2.72940010e-01
C     6.236083996800000e+00   4.912482482331424e+00  -4.859337000000004e-01 -2.37920995e+00  -2.08654768e+00   9.33218490e-01
C     7.432790175500000e+00   4.142281242006908e+00  -3.853145999999974e-01  1.33848567e+00   1.29928661e+00  -1.12548908e+00
C     8.732702256000000e+00   4.846182018580302e+00  -5.282765999999981e-01 -2.62632562e+00   6.04366450e-01   2.09661500e-01
C     9.928187224399998e+00   4.130329445208367e+00  -7.500320999999985e-01 -4.44886910e-01   1.34779706e+00   9.51724500e-01
C     1.117835190740000e+01   4.863253208331918e+00  -8.863970999999999e-01 -2.56036029e+00  -2.10444119e+00   2.50296670e-01
C     3.717644029300000e+00   6.259755857421466e+00  -8.110293000000013e-01  4.95226760e-01   1.55914263e+00   7.01294200e-01
C     4.963994272700000e+00   6.933125658193935e+00  -5.543598000000003e-01 -1.19717503e+00   3.14922873e+00   5.91240950e-01
C     6.183048535799999e+00   6.332202103185359e+00  -3.155232000000012e-01  1.25655859e+00  -2.94413538e+00  -1.65513175e+00
C     7.460961428000000e+00   6.965001698925670e+00  -3.378803999999995e-01 -2.02221314e+00   1.25358999e+00   2.01934740e-01
C     8.645698503399998e+00   6.311300654892833e+00  -4.784046000000011e-01  1.41471400e+00  -4.29845403e+00  -4.25665700e-01
C     9.859808469499999e+00   6.940089050460165e+00  -6.597420000000014e-01  4.67334370e-01   2.06497258e+00   5.17509150e-01
C     1.103691139060000e+01   6.209795217174348e+00  -7.969857000000005e-01  3.95818077e+00   4.49321600e+00  -6.75503030e-01
C     1.236863656390000e+01   7.067101707943878e+00  -8.176752000000000e-01 -1.37314454e+00  -6.86451826e+00   3.26230520e-01
