2
Lattice="2.43 0 0 1.215 2.10444173119619 0 0 0 30 " PBC="1 1 1" Properties=species:S:1:pos:R:3:force:R:3 Energy="-16.10136007"
C     0.000000000000000e+00   0.000000000000000e+00   3.000000000000000e+00  0.00000000e+00   0.00000000e+00   0.00000000e+00
C     1.215000000000000e+00   7.014805770653952e-01   3.000000000000000e+00 -0.00000000e+00  -0.00000000e+00  -0.00000000e+00
