32
Lattice="9.86 0 0 4.93 8.53901048131456 0 0 0 30 " PBC="1 1 1" Properties=species:S:1:pos:R:3:force:R:3 Energy="-256.23036985"
C     9.833934744900001e+00   1.978460549481416e-01   3.812918100000001e+00 -8.82195630e-01  -1.32968801e+00   3.77356990e-01
C     1.167431690800000e+00   9.308993548606752e-01   3.903582900000000e+00  2.16524621e+00  -1.83864666e+00  -4.64523680e-01
C     2.425406874200000e+00   2.016733248353824e-01   3.817230600000000e+00 -7.81007890e-01  -2.30543601e+00  -6.76111000e-02
C     3.698506952500000e+00   7.806775815022183e-01   3.866491500000000e+00 -6.42450590e-01   3.74294865e+00  -5.78399650e-01
C     4.949037540100000e+00   1.418924809758456e-01   3.744845400000000e+00 -4.74772010e-01   7.78708130e-01   5.13130910e-01
C     6.170915362100000e+00   9.070433235519656e-01   3.822014400000000e+00 -1.39482448e+00  -7.17063340e-01  -5.26000040e-01
C     7.372705406100000e+00   1.627795837307640e-01   3.867504900000000e+00  7.23008380e-01  -1.02762363e+00   1.05479730e-01
C     8.598056807499999e+00   8.511239056215896e-01   3.935491800000000e+00  3.92291890e-01   2.61407368e+00  -2.61013910e-01
C     1.108612506630000e+01   2.304498840820977e+00   4.003952700000000e+00 -9.82708540e-01   1.49356591e+00   2.44353890e-01
C     2.481186816900000e+00   2.961872000920633e+00   4.071047399999999e+00 -1.25260865e+00   1.45604015e+00  -3.53766330e-01
C     3.652420622300000e+00   2.248695041092500e+00   3.897694200000000e+00  2.42023209e+00   2.57267800e-02  -3.59914530e-01
C     4.874425342499999e+00   3.049530066904121e+00   3.682399200000000e+00 -3.22395190e-01  -2.91755187e+00   1.43155263e+00
C     6.115857565800000e+00   2.351962332843323e+00   3.753260400000000e+00 -1.22533740e-01  -2.50091899e+00  -3.39235900e-02
C     7.338927757600000e+00   2.982976079931848e+00   3.833675700000000e+00  2.26007633e+00   2.24964697e+00   7.13940280e-01
C     8.624945076800000e+00   2.330201347755882e+00   3.987870600000000e+00 -8.79155750e-01  -1.39510643e+00  -9.51655370e-01
C     9.865799109699999e+00   3.053836289889185e+00   3.952954800000000e+00 -8.86084240e-01   6.25788110e-01   6.07164660e-01
C     1.234224666830000e+01   4.412897171216134e+00   4.098726600000000e+00 -2.12645819e+00   5.32819780e-01  -9.73652530e-01
C     3.648821229300000e+00   5.133735331246923e+00   3.943433700000000e+00  2.40333979e+00  -1.45771711e+00  -5.67684940e-01
C     4.892130993799999e+00   4.415980351730147e+00   3.752122800000000e+00 -7.10727700e-02   2.10723779e+00   2.76650500e-02
C     6.143225228300000e+00   5.142833646913362e+00   3.682215600000000e+00 -9.96427730e-01  -2.66064500e-02   7.69696390e-01
C     7.352644299400000e+00   4.420795670520029e+00   3.836291400000000e+00  7.35314510e-01   8.58913040e-01  -1.08637008e+00
C     8.596071940199998e+00   5.184619038526928e+00   3.815666100000001e+00 -2.81109450e-01  -1.03478797e+00  -7.29730700e-02
C     9.846571863199999e+00   4.520327059795747e+00   3.909496800000000e+00  3.98508110e-01  -1.89308789e+00   1.54814920e-01
C     1.110102702660000e+01   5.219084704966932e+00   3.947914800000000e+00 -5.38658970e-01  -3.68317019e+00   3.58529970e-01
C     1.354229376010000e+01   6.512329540607291e+00   3.843438000000000e+00  1.27922230e-01   2.61916011e+00   3.68388900e-02
C     4.880374127000000e+00   7.307142258497682e+00   3.728287800000000e+00  7.83106340e-01  -1.09669933e+00   4.12958450e-01
C     6.111251023099999e+00   6.585960403295073e+00   3.696647100000000e+00 -1.44687790e-01  -6.14909690e-01  -3.44994280e-01
C     7.322459289799999e+00   7.287422950816008e+00   3.678650700000000e+00  1.25812856e+00   1.26330894e+00   5.17943880e-01
C     8.588248424600000e+00   6.590418193716157e+00   3.690784500000000e+00 -8.91860450e-01   3.01825440e-01   4.07213190e-01
C     9.820934334899999e+00   7.288213748576561e+00   3.731076900000000e+00  1.16569699e+00  -6.15282600e-01  -1.34977280e-01
C     1.106436310960000e+01   6.581663146271013e+00   3.815310900000000e+00  1.12000585e+00   7.66372230e-01   3.12232230e-01
C     1.234416108590000e+01   7.219557201053797e+00   3.862728600000000e+00 -2.28186524e+00   3.01816045e+00  -2.13411670e-01
