32
Lattice="9.86 0 0 4.93 8.53901048131456 0 0 0 30 " PBC="1 1 1" Properties=species:S:1:pos:R:3:force:R:3 Energy="-252.79154001"
C     9.639110314699998e+00   1.056599139483087e+00   3.091863000000000e+00 -7.52578580e-01   1.04230602e+00  -1.41954654e+00
C     1.087965262370000e+01   1.873645305910778e+00   3.038383200000000e+00 -1.51755014e+00  -4.26305561e+00   1.38320849e+00
C     2.267077262000000e+00   1.062780443779454e+00   3.027204900000000e+00 -5.08744750e-01   2.19429821e+00   1.57554069e+00
C     3.439054264900000e+00   1.859404627353073e+00   3.322311900000000e+00 -3.16683290e-01  -5.01470406e+00  -1.63360130e-01
C     4.648840966100000e+00   1.034096114384934e+00   3.389490000000000e+00 -3.84589974e+00  -2.75294090e-01   2.52959430e-01
C     5.807498341500000e+00   1.695136608705540e+00   3.421262400000000e+00  3.75577791e+00   3.50958426e+00  -6.06075190e-01
C     7.050635408100000e+00   1.074910876677238e+00   3.151482600000000e+00 -8.94158500e-02  -2.73098578e+00   4.26426720e-01
C     8.282915825900000e+00   1.637678973427297e+00   3.212321100000000e+00  5.22637962e+00   2.34102740e+00  -4.47533030e-01
C     1.077507544240000e+01   3.220014058230570e+00   3.398765700000000e+00  5.34271454e+00  -5.48415860e-01  -5.59474480e-01
C     1.209341670100000e+01   3.896747204450901e+00   3.536212800000000e+00 -3.56317641e+00   3.33132003e+00  -9.55782240e-01
C     3.390046959000000e+00   3.209058166224310e+00   3.559396200000000e+00  2.75919317e+00  -2.82591920e-01  -4.37746660e-01
C     4.647880010500000e+00   3.873899971840299e+00   3.574001100000000e+00  9.20226250e-01   3.19998648e+00  -5.19483990e-01
C     5.864734409000000e+00   3.196277146118056e+00   3.468474300000000e+00 -3.71356410e-01  -4.00751024e+00   7.00541990e-01
C     7.144493487599999e+00   3.743084807599737e+00   3.428615100000000e+00  7.93624460e-01   2.05475063e+00  -2.41793803e+00
C     8.428185818799999e+00   2.998022328738237e+00   3.251377800000000e+00 -3.06529114e+00   5.28421531e+00   1.76458875e+00
C     9.597830833100000e+00   3.874869661870407e+00   3.372591300000000e+00 -1.43911619e+00  -5.68945460e-01  -5.87933720e-01
C     1.214548149430000e+01   5.364316792941507e+00   3.378779400000000e+00 -1.60637041e+00  -1.64249919e+00   1.08049654e+00
C     3.537859155700000e+00   6.059425548154378e+00   3.335245800000000e+00 -3.03123805e+00   1.38984659e+00  -5.33600370e-01
C     4.708765756999999e+00   5.343925721305371e+00   3.413819400000000e+00  2.29630346e+00  -7.02185700e-01  -6.90540780e-01
C     5.969772594600000e+00   6.061766859437890e+00   3.095440500000000e+00 -1.34355453e+00  -2.65585891e+00   4.98269980e-01
C     7.137391773299999e+00   5.148218688482469e+00   3.088195200000000e+00  6.43807100e-01   3.01851100e+00   9.39894580e-01
C     8.382342340399999e+00   5.897282462264793e+00   3.026818500000000e+00  5.21372200e-01   3.97048200e-01   1.29772619e+00
C     9.662980585899998e+00   5.302645839112222e+00   3.291504900000000e+00 -2.78644638e+00  -1.38072847e+00  -4.79965580e-01
C     1.084537615780000e+01   6.022166685996261e+00   3.318403500000000e+00  2.79489357e+00   2.36590833e+00   1.92397760e-01
C     1.332267941650000e+01   7.478577324811392e+00   3.078869100000000e+00  2.13197877e+00   3.79401100e-01  -9.04246520e-01
C     1.458651577830000e+01   8.233034593783199e+00   2.872472100000000e+00 -1.28144309e+00  -2.12391839e+00   1.45895221e+00
C     5.938354690600000e+00   7.527558540556455e+00   2.908610100000000e+00  1.26768423e+00  -2.77905149e+00   8.78728120e-01
C     7.189936797900000e+00   8.157332679493598e+00   3.101781000000000e+00 -1.13196670e-01  -8.40606300e-02  -2.01050973e+00
C     8.385280472500000e+00   7.300420434837930e+00   3.119167200000000e+00 -5.37560290e-01   3.90455222e+00   9.73681490e-01
C     9.545254453700000e+00   8.147945745272933e+00   3.400091400000000e+00  2.23748655e+00  -1.66358106e+00  -1.78124530e+00
C     1.087766903820000e+01   7.522102112859735e+00   3.312840300000000e+00 -1.83845231e+00  -2.75217614e+00  -8.09181920e-01
C     1.211294561420000e+01   8.197405999505923e+00   3.031910400000000e+00 -2.68336759e+00  -9.37192770e-01   1.90075125e+00
