32
Lattice="9.86 0 0 4.93 8.53901048131456 0 0 0 30 " PBC="1 1 1" Properties=species:S:1:pos:R:3:force:R:3 Energy="-257.0747096"
C     4.950217486300000e+00   8.487308564735802e+00  -1.720161000000004e-01 -4.20050050e-01  -2.00549600e-02  -3.48567710e-01
C     1.246104581500000e+00   6.763081596687416e-01  -1.479558000000019e-01 -2.93349590e-01  -1.20505689e+00  -3.99873020e-01
C     7.388050031100000e+00   8.480968861795029e+00  -1.913702999999991e-01  1.93280364e+00   1.52858864e+00  -3.16971240e-01
C     3.744817449800000e+00   6.815141381880832e-01  -2.956608000000003e-01 -1.36665103e+00  -1.19444882e+00   5.78332850e-01
C     9.907421670000000e+00   8.482277806711508e+00  -2.959880999999989e-01 -1.06169719e+00   1.01715932e+00   1.39773720e-01
C     6.222725767400000e+00   6.729092065471777e-01  -2.332818000000003e-01 -1.97405681e+00  -1.47146249e+00  -8.30144380e-01
C     1.234863856120000e+01   8.536331963192634e+00  -3.473799000000000e-01  1.21345650e+00  -2.96002272e+00   6.23825750e-01
C     8.658287850000001e+00   6.651294848790592e-01  -2.388338999999995e-01 -5.02893720e-01   2.29552490e-01   1.56885850e-01
C     1.212648566200000e+00   2.077438440097821e+00  -2.537436000000000e-01  1.63721622e+00   6.55069070e-01  -1.03949210e-01
C     2.466492311000000e+00   2.800539096345390e+00  -3.549270000000000e-01  4.11224120e-01  -1.16890450e+00   3.72308500e-02
C     3.710327662800000e+00   2.096463013886841e+00  -3.336626999999979e-01  8.77149560e-01  -3.49701430e-01   2.93382730e-01
C     4.992701416200000e+00   2.775377535724393e+00  -2.839221000000016e-01 -2.15086491e+00   2.63724610e-01  -3.39512780e-01
C     6.194215429499999e+00   2.052158784961886e+00  -2.094129000000002e-01 -7.63228160e-01   1.12603047e+00   2.32471800e-02
C     7.391273708799999e+00   2.754357395186196e+00  -1.895151000000013e-01  7.59378570e-01   1.69638314e+00  -1.55673930e-01
C     8.594708696600000e+00   2.082273569392016e+00  -1.960508999999995e-01  3.05289331e+00  -6.42880450e-01  -1.76281160e-01
C     9.871120847500000e+00   2.780253566878788e+00  -2.658065999999977e-01 -1.90016558e+00   8.58553880e-01   7.91341200e-02
C     2.513150422600000e+00   4.192906900390208e+00  -4.451223000000013e-01 -1.65669248e+00   8.83122550e-01   9.56522900e-02
C     3.732681416700000e+00   4.913181741899631e+00  -4.117637999999992e-01  3.68510800e-01  -1.46183440e-01   1.16608760e-01
C     4.967991023700000e+00   4.190952235501231e+00  -3.445929000000021e-01  4.51982960e-01   7.52962010e-01   5.29032490e-01
C     6.201186449500000e+00   4.922797692381369e+00  -2.377982999999979e-01 -4.33102500e-02  -5.27726290e-01  -5.31118620e-01
C     7.445337124100000e+00   4.178468543739890e+00  -2.190252000000008e-01 -2.11322718e+00   9.81694690e-01   1.24014070e-01
C     8.626602641400000e+00   4.928077106390838e+00  -2.636712000000010e-01  1.08624291e+00  -6.72968220e-01  -8.90348600e-02
C     9.865118178099998e+00   4.218307638694750e+00  -3.542555999999983e-01  2.61584460e-01  -1.00133833e+00   2.37317340e-01
C     1.109919035510000e+01   4.877310725114828e+00  -4.559357999999989e-01  8.28031310e-01   2.71768045e+00   2.18366400e-02
C     3.728046871599999e+00   6.339354207583196e+00  -3.446585999999989e-01 -1.85384233e+00   3.12209900e-02  -5.14020720e-01
C     4.908778617799999e+00   7.060416772809400e+00  -2.505290999999978e-01  2.41628688e+00   1.52264660e-01   3.67664600e-02
C     6.176194011700000e+00   6.347667190455791e+00  -2.640549000000014e-01 -5.59779250e-01   1.69112190e-01   6.65621070e-01
C     7.396862159599999e+00   7.079038646864184e+00  -2.029698000000018e-01 -9.01243600e-02  -1.10565720e+00  -3.43966000e-02
C     8.624856681899999e+00   6.334357776381035e+00  -2.330144999999995e-01 -5.48796090e-01   1.25734719e+00  -4.93552050e-01
C     9.826271602200000e+00   7.073200696179218e+00  -3.378915000000013e-01  2.20208024e+00  -8.06272230e-01  -1.63238740e-01
C     1.109032301060000e+01   6.369214614891128e+00  -4.758455999999995e-01  3.59874200e-02  -1.42203745e+00   7.66590470e-01
C     1.233851860230000e+01   7.069436785749738e+00  -4.109936999999988e-01 -2.36099890e-01   3.74249080e-01  -2.89176100e-02
