32
Lattice="9.86 0 0 4.93 8.53901048131456 0 0 0 30 " PBC="1 1 1" Properties=species:S:1:pos:R:3:force:R:3 Energy="-256.95140933"
C     9.809588334299999e+00   1.432535223952633e+00   3.406657800000000e+00  1.37595930e-01  -3.66411880e-01  -5.86082410e-01
C     1.104823150870000e+01   2.103700935340004e+00   3.414192300000000e+00 -9.51348200e-02   9.71840990e-01   2.94290340e-01
C     2.436205792700000e+00   1.429574407458797e+00   3.462499800000000e+00 -1.96440503e+00  -1.78549049e+00  -2.87262860e-01
C     3.615548856500000e+00   2.118872195259820e+00   3.502418400000000e+00  2.36120177e+00   9.43084500e-01   3.19896330e-01
C     4.830365094400000e+00   1.362174887668795e+00   3.485741700000000e+00  1.79806284e+00   1.46659468e+00   3.28084800e-02
C     6.104423268900000e+00   2.068598258718191e+00   3.452937900000000e+00 -2.09035670e-01   8.60696390e-01  -2.38205990e-01
C     7.369533690599999e+00   1.376067345379126e+00   3.396768300000000e+00 -1.43490731e+00   1.51340426e+00  -1.36647870e-01
C     8.578381029599999e+00   2.139884394518270e+00   3.294761700000000e+00 -5.75668700e-01  -1.59964894e+00   8.89144800e-01
C     1.101434569600000e+01   3.518639991176710e+00   3.450954300000000e+00  1.64268917e+00   5.45314180e-01   7.17052300e-02
C     1.229982845530000e+01   4.248256851711672e+00   3.560632500000000e+00 -2.18757338e+00   1.07514570e+00  -1.12411230e-01
C     3.668717033100000e+00   3.568705490472522e+00   3.590247600000000e+00 -1.11606649e+00  -1.60535123e+00  -3.94836860e-01
C     4.887710755800000e+00   4.256348844993045e+00   3.552213600000000e+00  6.86530590e-01  -1.51689904e+00  -2.46352710e-01
C     6.111269214800000e+00   3.522245502961785e+00   3.426615000000000e+00 -5.46565140e-01  -7.45108900e-01  -3.58719000e-02
C     7.309832031499999e+00   4.255692109697028e+00   3.287669100000000e+00 -6.53804300e-02   1.30482200e-02   4.95313390e-01
C     8.534049237100000e+00   3.532345700727844e+00   3.297653100000000e+00  4.83460760e-01   7.33733930e-01  -2.15374530e-01
C     9.772375313900000e+00   4.209539953514096e+00   3.378033600000000e+00  1.14430023e+00   5.66724930e-01  -5.39344000e-03
C     1.226578409380000e+01   5.714848040381480e+00   3.581251800000000e+00 -9.02968910e-01  -2.12201900e+00  -2.34901330e-01
C     1.349489575410000e+01   6.365897636270172e+00   3.555212400000000e+00  8.09204930e-01   1.48986362e+00   2.28523070e-01
C     4.893883066500000e+00   5.636262758423097e+00   3.520816200000000e+00 -2.73197719e+00   1.30946082e+00  -3.14053100e-02
C     6.047857681400000e+00   6.352279878526982e+00   3.394497000000000e+00  2.53668514e+00   2.93330653e+00  -1.23907600e-01
C     7.280769878699999e+00   5.693434507630469e+00   3.317839500000000e+00  2.08024924e+00  -1.45038743e+00   2.42316310e-01
C     8.581581339100000e+00   6.339898740281506e+00   3.393404700000000e+00 -1.43285403e+00   1.31695189e+00  -8.57594700e-02
C     9.805473411199999e+00   5.623746191471408e+00   3.421981800000000e+00 -8.57414960e-01   1.05972566e+00   1.73525200e-01
C     1.099049834930000e+01   6.409246264532311e+00   3.530839200000000e+00  1.97756242e+00  -2.14064468e+00   2.77298350e-01
C     1.348814904910000e+01   7.814931509321737e+00   3.531461100000000e+00  1.76906743e+00  -2.33872190e-01  -6.56586920e-01
C     9.830310603299999e+00   2.304704545583440e-02   3.432339600000000e+00 -1.56324987e+00  -1.60050150e+00   2.00311140e-01
C     6.114482539500000e+00   7.822313483881697e+00   3.380047800000000e+00 -4.98088830e-01  -4.83122810e-01   4.09419080e-01
C     7.356491178400001e+00   8.525164645286891e+00   3.412030800000000e+00  3.76361310e-01  -4.86322460e-01   1.31651820e-01
C     8.597959292100001e+00   7.789973177150164e+00   3.465356400000000e+00 -1.06451655e+00  -8.34027330e-01  -5.29728660e-01
C     9.814011037300000e+00   8.495393982979103e+00   3.481860300000000e+00 -5.54878540e-01   1.68440430e-01   5.40530670e-01
C     1.104040621830000e+01   7.792725812568497e+00   3.579967500000000e+00 -4.98502210e-01   1.34325714e+00  -9.70854260e-01
C     1.226807777630000e+01   8.523605165802927e+00   3.485495400000000e+00  4.96216300e-01  -1.34078597e+00   5.84849110e-01
