26
Lattice="8.88768389401873 1.33226762955019e-15 0 4.44384194700937 7.69696003302603 0 0 0 30 " PBC="1 1 1" Properties=species:S:1:pos:R:3:force:R:3 Energy="-209.1095885"
C     2.656919774750720e-02   2.984203767151360e-02   3.414447600000000e+00 -5.13857500e-01  -5.48524700e-02  -4.11036620e-01
C     6.847865165908772e+00   7.135191860399228e+00   3.394330500000000e+00 -1.74070470e-01  -3.69094720e-01   4.29801070e-01
C     8.214526895358258e+00   7.529058389966379e+00   3.419830800000000e+00 -3.46307350e-01  -2.67011970e-01  -1.15851880e-01
C     9.218118604756661e+00   6.516192405708189e+00   3.422741400000000e+00  1.58774930e-01  -3.79894010e-01   1.13372000e-01
C     1.059320910252090e+01   6.882988495941030e+00   3.416117700000000e+00 -3.79335500e-02   3.18365390e-01  -3.77070560e-01
C     1.165504202668466e+01   5.934904514562537e+00   3.388111200000000e+00 -6.10006970e-01  -2.99588930e-01   2.58252250e-01
C     4.112215000257860e+00   6.368435018556283e+00   3.410886900000000e+00  2.35244240e-01  -1.33493605e+00  -4.14316850e-01
C     5.108633326671853e+00   5.353207529991290e+00   3.366918600000000e+00  9.50300540e-01  -1.97624470e-01   6.40993350e-01
C     6.489115848956891e+00   5.750779683995284e+00   3.468433200000000e+00  3.57798640e-01  -1.06204910e+00  -1.09451614e+00
C     7.515176378661915e+00   4.706461534996905e+00   3.434633400000000e+00 -2.19071580e-01   1.16830383e+00   5.22544270e-01
C     8.893473375049744e+00   5.119059155584264e+00   3.437359200000000e+00 -2.92466740e-01   3.74966040e-01  -7.13494400e-02
C     9.957668067888896e+00   4.166188203854312e+00   3.430786500000000e+00 -6.13511980e-01  -3.92357410e-01  -1.41404990e-01
C     1.133469874705206e+01   4.541808704822348e+00   3.398481900000000e+00 -1.13932359e+00   5.92989420e-01  -1.18561000e-03
C     3.423186772936182e+00   3.529767141952971e+00   3.373278300000000e+00  5.31048470e-01   1.43003139e+00   2.41753570e-01
C     4.776556704518274e+00   3.955371316507824e+00   3.349221600000000e+00  5.26338900e-01  -2.17069240e-01  -3.20703300e-02
C     5.797774379731985e+00   2.944811649353023e+00   3.353012100000000e+00  5.93534600e-02   6.96450950e-01   9.46134440e-01
C     7.155856294652708e+00   3.325266380007100e+00   3.459111900000000e+00  1.20781753e+00   4.36730220e-01  -1.09622070e+00
C     8.217898168249112e+00   2.353160186374977e+00   3.385777500000000e+00 -2.36815550e-01   5.32153280e-01   4.64784500e-01
C     9.611314892480937e+00   2.781657571235507e+00   3.413218200000000e+00 -1.48279493e+00  -1.01025940e-01   4.06286860e-01
C     1.724982526733017e+00   1.794300159182341e+00   3.483416400000000e+00 -3.96142070e-01   1.03865460e-01  -9.96142900e-01
C     3.069659103608018e+00   2.180886826983518e+00   3.446907000000000e+00  3.32299880e-01   8.04088200e-02  -1.72905700e-01
C     4.086704855603157e+00   1.228537344295600e+00   3.413713800000000e+00  7.04368590e-01  -1.88727644e+00   3.43506790e-01
C     5.453486302126149e+00   1.578542285314194e+00   3.436335300000000e+00  4.55264270e-01  -3.88664430e-01  -1.06793953e+00
C     6.474618611129289e+00   5.575017446561426e-01   3.358557000000000e+00  4.76038480e-01   1.23982686e+00   8.30462190e-01
C     7.858133300096977e+00   9.678775607612410e-01   3.378375300000000e+00 -1.93802600e-02   8.80146600e-01  -2.38036000e-03
C     1.382062574752184e+00   4.363355841070802e-01   3.377086500000000e+00  8.70345900e-02  -9.02793070e-01   7.96500320e-01
