64
Lattice="9.86 0 0 4.93 8.53901048131456 0 0 0 30 " PBC="1 1 1" Properties=species:S:1:pos:R:3:force:R:3 Energy="-515.13532387"
C     4.999309588200000e+00   7.024833520677772e+00   9.722880000000000e-02  8.97696800e-01  -2.44414120e-01  -2.49411950e-01
C     6.275167163399999e+00   7.734443223487781e+00   1.084236000000000e-01 -1.75145317e+00   3.23222850e-01  -8.17073300e-01
C     9.757033104600000e+00   1.504162920171912e+00   3.411114600000000e+00  1.07900344e+00  -6.43240670e-01   4.30762160e-01
C     1.101745277920000e+01   2.162692262290560e+00   3.409098000000000e+00  1.69303700e-01   2.42319715e+00  -5.20038300e-02
C     7.501794646000000e+00   7.003047089339101e+00   1.120449000000000e-01 -1.48878943e+00   2.49092286e+00   2.46284070e-01
C     8.697329801799999e+00   7.781931734810834e+00   1.023042000000000e-01  1.32966280e-01  -2.49595931e+00  -2.31744490e-01
C     2.425404064100000e+00   1.478494398498718e+00   3.489436800000000e+00 -2.52218630e+00  -1.90263340e-01   8.63703900e-02
C     3.597564413700000e+00   2.207411999465473e+00   3.427779000000000e+00  1.36448172e+00   1.79890362e+00  -7.69197170e-01
C     9.905533332099999e+00   7.061906744748055e+00   9.800040000000000e-02  1.10777667e+00  -1.33192464e+00  -4.05958680e-01
C     1.115641784440000e+01   7.741685158275869e+00   7.693770000000000e-02 -9.28500520e-01   9.71913550e-01   1.95348800e-01
C     4.838456456899999e+00   1.560903022399521e+00   3.332521200000000e+00  1.73667921e+00  -1.72249228e+00   9.89222690e-01
C     6.128742909600000e+00   2.191268573202509e+00   3.413282100000000e+00 -1.16338125e+00   9.60990740e-01  -7.10443440e-01
C     1.239059005110000e+01   7.031346480141183e+00   4.342890000000001e-02 -5.92638150e-01  -7.34087000e-03  -4.54024170e-01
C     1.362809281790000e+01   7.722662206898839e+00   1.627230000000000e-02  3.34113660e-01   8.61816350e-01   2.18667840e-01
C     7.349919636299999e+00   1.491312990251084e+00   3.375085200000000e+00 -1.01817268e+00   5.19943690e-01   4.06124430e-01
C     8.530929286599999e+00   2.234061141102190e+00   3.420351900000000e+00  1.78098596e+00   7.57148600e-02   2.49431940e-01
C     1.305034153300000e+00   6.340369837489688e-01  -6.907619999999781e-02 -2.79176500e-01  -9.91227290e-01   3.80410140e-01
C     2.548277362800000e+00   1.314865354005403e+00  -1.007552999999994e-01 -1.93912630e+00   1.59803117e+00   3.71706900e-02
C     1.101527830410000e+01   3.636223958678511e+00   3.295306800000000e+00  1.03249808e+00  -8.33507860e-01   4.21468450e-01
C     1.229591004200000e+01   4.342406188071952e+00   3.200588100000000e+00 -2.58324677e+00   7.65204700e-02   6.39881600e-02
C     3.744548173200000e+00   6.090457763870480e-01  -3.896099999998626e-03  1.12961201e+00   2.95162862e+00   1.09671160e-01
C     4.972084846400000e+00   1.401573711243306e+00   3.209610000000000e-02  3.32544120e-01  -2.36730837e+00   5.77954880e-01
C     3.626479751100000e+00   3.648498273902882e+00   3.286155300000000e+00  1.42071513e+00  -1.31001400e+00   3.23712940e-01
C     4.912114403700000e+00   4.312954543195699e+00   3.310971300000000e+00 -5.58032980e-01  -2.97815810e-01   3.85796640e-01
C     6.173530036899999e+00   6.508169932432167e-01   1.421088000000000e-01  1.77101095e+00  -7.27989220e-01  -9.93573470e-01
C     7.451342850100000e+00   1.308735966892755e+00   8.218350000000001e-02 -3.41240930e-01   1.71596184e+00   9.69573100e-02
C     6.151573739600000e+00   3.605128725065067e+00   3.405068400000000e+00 -6.86054120e-01   5.26980740e-01  -1.91297000e-03
C     7.354154604900000e+00   4.359952232196361e+00   3.441531600000000e+00 -6.16525700e-01   7.50507070e-01   7.39317240e-01
C     8.694224986399998e+00   6.275735505463423e-01  -3.067649999999844e-02 -4.95089730e-01  -7.61650250e-01   4.77683370e-01
C     9.905668216899999e+00   1.348465591733260e+00  -9.957840000000218e-02  1.37434362e+00   1.06293370e-01  -2.14648560e-01
C     8.582410860900000e+00   3.662243177512119e+00   3.504798300000000e+00 -6.50636850e-01  -3.06962420e-01  -8.77497630e-01
C     9.793886875899998e+00   4.382210358473948e+00   3.393627300000000e+00  1.02824909e+00  -1.27711084e+00  -4.63000700e-01
C     2.494834141500000e+00   2.775880910392190e+00  -1.277715000000015e-01  1.47373774e+00  -1.69591725e+00   4.60372000e-03
C     3.711939477000000e+00   3.445542475083509e+00  -6.730499999999751e-03  2.40701689e+00   2.37884400e+00   3.24925300e-02
C     1.226521556620000e+01   5.758480334571765e+00   3.104712300000000e+00 -2.65261800e-01   5.73613570e-01   5.33707850e-01
C     1.348519055610000e+01   6.456395435578889e+00   3.206139900000000e+00  1.06228144e+00  -8.87713800e-02   6.99266540e-01
C     5.019126314799999e+00   2.796582631229587e+00   6.370320000000000e-02 -2.03034064e+00  -1.64563700e-02  -3.92261530e-01
C     6.251281806400000e+00   3.497209295014635e+00   1.091925000000000e-01  3.63117210e-01  -1.08330659e+00   7.14527800e-01
C     4.913674551500000e+00   5.713485299698977e+00   3.365910300000000e+00 -2.80904326e+00   2.08689032e+00  -7.96937180e-01
C     6.058216005799999e+00   6.507988563849572e+00   3.471968100000000e+00  2.02098515e+00  -1.00191443e+00   4.05940810e-01
C     7.486076967899999e+00   2.761607612814450e+00   1.418574000000000e-01 -1.95541190e-01  -6.12098890e-01  -7.11208330e-01
C     8.730742334500000e+00   3.472151654151180e+00   6.136230000000000e-02 -1.21625357e+00   4.21722280e-01  -2.66405420e-01
C     7.300423915300000e+00   5.806966116928777e+00   3.503460300000000e+00  1.57216410e+00  -7.41898570e-01  -7.37882240e-01
C     8.585087900200000e+00   6.494881011982563e+00   3.391476900000000e+00 -1.57578115e+00   3.31340830e-01   5.98054410e-01
C     9.944289491799999e+00   2.791240797053509e+00  -1.549242000000000e-01 -9.34622810e-01  -1.43693123e+00   8.36894730e-01
C     1.115678133330000e+01   3.496258134637268e+00  -1.706456999999979e-01 -4.92455470e-01  -5.50543590e-01   2.00690690e-01
C     9.797521567699999e+00   5.787499563957311e+00   3.275031000000000e+00  7.39951000e-02   1.83235890e-01   1.70444650e-01
C     1.102075242820000e+01   6.499443917622656e+00   3.137877600000000e+00  4.42443850e-01  -7.47669420e-01   3.57624410e-01
C     3.763205265200000e+00   4.909364548044757e+00   3.407040000000000e-02 -1.92227028e+00  -1.41576788e+00  -5.41507840e-01
C     4.988145849700000e+00   5.584857915333497e+00   1.068156000000000e-01  5.72765200e-01   9.92605960e-01   3.19332520e-01
C     1.345636312060000e+01   7.888335490501065e+00   3.314292300000000e+00  2.60993121e+00  -6.74295600e-02   2.42073650e-01
C     9.810332616400000e+00   7.371112938629441e-02   3.455641200000000e+00 -2.25074685e+00   1.51358110e-01  -3.90477480e-01
C     6.242961248199999e+00   4.891409741488670e+00   1.896012000000000e-01 -1.25979025e+00   8.65024730e-01  -7.95506910e-01
C     7.429626298699999e+00   5.627495414802862e+00   1.470468000000000e-01  2.41120149e+00  -1.86178271e+00   4.15893010e-01
C     6.102897976200000e+00   7.923003019148817e+00   3.540586800000000e+00 -1.15673261e+00  -5.31324670e-01  -1.83080830e-01
C     2.396333382400000e+00   5.763678371811360e-02   3.591692100000000e+00  1.24514694e+00   7.23787140e-01  -8.50344390e-01
C     8.696040656099999e+00   4.901661079740225e+00   1.201830000000000e-01 -1.49423053e+00  -3.97261670e-01  -4.73024840e-01
C     9.884236422299999e+00   5.604592422453825e+00   2.523300000000000e-02  1.28890775e+00   1.33647824e+00   2.08297500e-01
C     8.567978532400000e+00   7.918924446183151e+00   3.446321100000000e+00  8.26295060e-01   1.97244370e-01  -1.26096550e-01
C     4.878092966699999e+00   1.393107965473224e-01   3.323771400000000e+00 -1.10403107e+00  -1.75485363e+00   9.10012000e-03
C     1.112280362540000e+01   4.889084056594338e+00  -7.425509999999846e-02  4.38493900e-01   1.46417082e+00  -6.45345100e-02
C     1.235160651980000e+01   5.613592966450269e+00  -4.734090000000180e-02  1.30724804e+00  -1.98989140e-01   5.79839850e-01
C     1.102143636710000e+01   7.905347163349636e+00   3.210524700000000e+00  2.88846920e-01   1.76037824e+00   4.81797160e-01
C     7.340527739800000e+00   9.615250282878240e-02   3.319434000000000e+00 -7.87189310e-01  -1.80676615e+00  -6.99663270e-01
