64
Lattice="9.86 0 0 4.93 8.53901048131456 0 0 0 30 " PBC="1 1 1" Properties=species:S:1:pos:R:3:force:R:3 Energy="-515.3412874"
C     4.979973536599999e+00   7.817660662461249e+00  -1.617251999999993e-01 -5.41534450e-01   3.69374900e-02   3.59130350e-01
C     6.188507426199999e+00   8.524245335418613e+00  -1.277010000000018e-01  6.61005180e-01   2.06699870e+00  -6.58124920e-01
C     9.814400655200000e+00   7.091940237798416e-01   3.526754400000000e+00  1.03830104e+00  -6.14960140e-01  -4.20028010e-01
C     1.214279755300000e+00   1.380384583687710e+00   3.514821900000000e+00 -1.72714062e+00   7.83843010e-01  -1.67453750e-01
C     7.450637662900000e+00   7.873088489558292e+00  -2.007465000000010e-01 -1.21685574e+00  -1.71945025e+00   8.13442800e-01
C     3.745139822500000e+00   8.308457197040000e-05  -1.134830999999998e-01  4.75217780e-01   9.76601890e-01   1.18505470e-01
C     2.416191964700000e+00   7.068038693563847e-01   3.359682300000000e+00  6.32127710e-01  -2.53904770e-01   5.30444810e-01
C     3.613793727200000e+00   1.461233557324341e+00   3.428805300000000e+00  1.26219717e+00  -1.33671029e+00  -4.14193050e-01
C     9.897633154999998e+00   7.859341451196435e+00  -8.967840000000038e-02  1.35141289e+00  -1.95624713e+00  -3.26641040e-01
C     1.117497416720000e+01   8.538021662586416e+00  -1.208096999999988e-01 -1.53673757e+00  -4.76921600e-02   3.46340000e-03
C     4.828634368600000e+00   6.991458285876063e-01   3.427153200000000e+00  1.40962484e+00   1.27540946e+00   2.47495700e-01
C     6.075544117700000e+00   1.408226198137959e+00   3.432196500000000e+00  1.98616322e+00   1.48310110e-01   2.41211470e-01
C     1.237914411940000e+01   7.778169105232926e+00  -1.271853000000007e-01  2.76917110e-01   2.98779346e+00   5.73083650e-01
C     8.684272894000001e+00   2.403868074287680e-02  -9.162990000000093e-02 -8.98704600e-02  -2.51706744e+00  -5.68873910e-01
C     7.388943297799999e+00   6.833244084098432e-01   3.451933800000000e+00 -2.82192218e+00   1.54714141e+00   5.32454510e-01
C     8.598429071800000e+00   1.436967909682906e+00   3.539862900000000e+00 -8.33783990e-01  -2.16016346e+00  -6.95017710e-01
C     1.245689722000000e+00   1.451580547537120e+00  -1.050927000000001e-01  1.37422005e+00  -1.29012194e+00   9.94340470e-01
C     2.512231569200000e+00   2.126118314163043e+00   3.224910000000000e-02 -6.16268010e-01  -2.39311900e-02  -7.27198740e-01
C     1.105320952690000e+01   2.792332680323586e+00   3.606575100000000e+00  1.34154090e-01   1.73642861e+00  -5.10875600e-02
C     2.411601986800000e+00   3.575668114227810e+00   3.637978800000000e+00  3.49646490e-01  -5.79085420e-01  -7.25272280e-01
C     3.764769554200000e+00   1.408856633281698e+00  -3.621000000002539e-04 -1.30989965e+00   1.11184850e+00  -3.09866630e-01
C     4.956730805099999e+00   2.155801707783724e+00  -2.817540000000207e-02  1.93843439e+00  -1.41746769e+00  -3.81359920e-01
C     3.677475473900000e+00   2.868997282654703e+00   3.472021200000000e+00 -1.75357002e+00   4.19130800e-01   5.88767000e-01
C     4.902199286300000e+00   3.569550510949623e+00   3.432662700000000e+00 -1.38588480e-01  -3.81613510e-01   5.15665570e-01
C     6.222981042800000e+00   1.426686599504567e+00  -1.506929999999969e-01 -2.96610190e-01   1.54353230e-01   3.06467410e-01
C     7.457979616099999e+00   2.125023186068983e+00  -2.059007999999984e-01 -5.02928350e-01   7.84329830e-01   7.50046260e-01
C     6.124076516700000e+00   2.854782221128437e+00   3.467126700000000e+00  7.50987800e-02  -6.62149960e-01  -8.08335780e-01
C     7.369163349000000e+00   3.572571356687133e+00   3.430865400000000e+00 -1.22798940e+00  -1.28497670e-01   4.56228160e-01
C     8.691172675500001e+00   1.415326385352079e+00  -9.689309999999907e-02 -8.70086000e-01   1.33754542e+00  -6.07905230e-01
C     9.897827594199999e+00   2.178058894770158e+00  -6.879810000000219e-02  3.82458370e-01  -1.69348854e+00  -1.23822840e-01
C     8.564636929099999e+00   2.819296484496492e+00   3.473448300000000e+00  8.69573870e-01   1.91809026e+00   4.23937910e-01
C     9.804857752800000e+00   3.517328399166982e+00   3.560255700000000e+00  9.84741980e-01  -8.85824600e-02   5.46968510e-01
C     2.504173681400000e+00   3.549555990960179e+00   3.373920000000000e-02  1.20996985e+00   7.05941020e-01   5.77408510e-01
C     3.781287519200000e+00   4.252646671609337e+00  -8.077499999998849e-03 -2.07744470e+00   7.14561260e-01   6.49660290e-01
C     1.226139052710000e+01   5.013688627732585e+00   3.649937100000000e+00  7.56094210e-01  -1.25840547e+00  -3.73406840e-01
C     3.679277438200000e+00   5.682360008768643e+00   3.537017100000000e+00 -2.16528770e+00   1.43331828e+00  -8.97238000e-03
C     4.996457928300000e+00   3.562844313679050e+00  -2.240099999999856e-02  2.31242970e-01  -1.69676820e-01  -2.65874600e-02
C     6.237655680800000e+00   4.272006828510221e+00  -5.658929999999884e-02 -1.62080916e+00   6.38063200e-02  -6.65710220e-01
C     4.884502706199999e+00   4.981864674964777e+00   3.449844900000000e+00 -4.18223590e-01  -5.38832740e-01  -7.26841000e-02
C     6.078600224699999e+00   5.679172652326773e+00   3.364990800000000e+00  2.36675441e+00   9.57645840e-01   3.39468040e-01
C     7.439840617800000e+00   3.578421091206562e+00  -1.805048999999990e-01  4.74375400e-01  -1.75398538e+00   4.30105180e-01
C     8.650680268399999e+00   4.270813245625326e+00  -1.296695999999997e-01  1.29171116e+00   3.45795220e-01   3.07267350e-01
C     7.339786366399999e+00   5.019510781248163e+00   3.442317900000000e+00  6.64413900e-01  -2.05356004e+00  -6.97483080e-01
C     8.610436333299999e+00   5.660350453086128e+00   3.447801300000000e+00 -6.85174160e-01   1.37313124e+00   2.12039230e-01
C     9.912149194900000e+00   3.560693678499558e+00  -2.940420000000188e-02 -2.26136760e-01   2.36397588e+00   1.84638150e-01
C     1.115858453010000e+01   4.317700354440273e+00   1.037883000000000e-01 -1.29110171e+00  -2.72982036e+00  -1.17767829e+00
C     9.832383027400001e+00   4.944539635475440e+00   3.631717500000000e+00 -1.19626364e+00  -7.99055500e-02  -1.05053425e+00
C     1.101653875720000e+01   5.694161433592631e+00   3.620888400000000e+00  1.53699064e+00   8.73530490e-01   1.35663990e-01
C     3.727845579700000e+00   5.679840915286938e+00   1.345020000000000e-02  1.67147090e-01   1.22364610e-01  -9.92405900e-01
C     4.967917566699999e+00   6.384951755035453e+00  -1.720812000000009e-01 -1.73753791e+00   5.99151090e-01   1.14516393e+00
C     1.349564851580000e+01   7.129291919000451e+00   3.493964100000000e+00  1.37505498e+00  -1.45281619e+00   2.17564500e-02
C     4.903008644400000e+00   7.816635981203649e+00   3.423684900000000e+00 -1.09563178e+00   4.71879280e-01   3.30814710e-01
C     6.159461049400000e+00   5.683079847352108e+00  -1.159077000000011e-01  2.79320767e+00   8.20978730e-01  -2.41153340e-01
C     7.417759739399999e+00   6.442843769776814e+00  -1.480797000000003e-01 -3.50413690e-01  -1.06905242e+00  -3.03818100e-01
C     6.134383618399999e+00   7.089996075892330e+00   3.346752000000000e+00 -2.85800130e-01   1.30582160e+00  -1.44874930e-01
C     7.379391127000000e+00   7.831074594024281e+00   3.289082700000000e+00  3.81116900e-02  -1.50737645e+00   3.57289860e-01
C     8.630275787199999e+00   5.691136745300406e+00  -1.164930000000020e-01  1.15802539e+00   9.08398680e-01   2.20189000e-03
C     9.902742261899999e+00   6.399392929559229e+00  -9.100619999999893e-02 -1.75858667e+00   1.20291444e+00   2.82188380e-01
C     8.636740151100000e+00   7.100663947075098e+00   3.344635500000000e+00 -1.59164116e+00  -3.74118750e-01   7.49835910e-01
C     9.827517117399999e+00   7.826298554682608e+00   3.506837400000000e+00 -6.50345110e-01   3.83080750e-01  -1.11751615e+00
C     1.111110172810000e+01   5.707976954818538e+00   1.259640000000000e-02  5.24643930e-01   1.05318520e-01   1.54518640e-01
C     1.233304280200000e+01   6.400978026074632e+00  -2.067000000000263e-03  1.83381311e+00  -9.80233340e-01  -2.19363460e-01
C     1.105424536920000e+01   7.145439870938969e+00   3.534863400000000e+00 -1.66893676e+00  -2.17091410e+00   4.96079700e-01
C     1.224807094890000e+01   7.813168374437827e+00   3.518853300000000e+00  2.74056656e+00   1.00038106e+00  -2.71750060e-01
