64
Lattice="9.86 0 0 4.93 8.53901048131456 0 0 0 30 " PBC="1 1 1" Properties=species:S:1:pos:R:3:force:R:3 Energy="-515.60465896"
C     5.023706334100000e+00   7.003010627764350e+00   9.008850000000000e-02 -1.61108863e+00   8.31003590e-01  -1.65995550e-01
C     6.231334434800000e+00   7.717804961567501e+00   1.202928000000000e-01  4.15555180e-01   6.24881220e-01  -8.55201390e-01
C     9.797052034499998e+00   1.546907755003010e+00   3.444738300000000e+00 -2.81808700e-01  -6.24734220e-01   3.14148390e-01
C     1.102890300000000e+01   2.237278127910426e+00   3.412916100000000e+00  1.96802100e-02  -1.06415786e+00   1.81757560e-01
C     7.470760197399999e+00   7.028491632767405e+00   1.719702000000000e-01 -2.18934170e-01  -1.40164624e+00   7.21956300e-02
C     8.693980162599999e+00   7.714092541371216e+00   9.129599999999999e-02  7.91269300e-02   1.65177025e+00   3.56781040e-01
C     2.374985644300000e+00   1.510497755876710e+00   3.472668900000000e+00  2.15116415e+00   9.80698950e-01  -3.31304180e-01
C     3.649188711499999e+00   2.241882447751346e+00   3.371539800000000e+00 -7.48088680e-01  -1.59854202e+00  -1.90072310e-01
C     9.915453428799999e+00   6.995398014531326e+00   1.365054000000000e-01  2.35509830e-01   7.15026010e-01  -7.56921990e-01
C     1.113332227340000e+01   7.736076053071766e+00   7.875720000000000e-02  1.02485025e+00  -8.48552300e-01   1.50758200e-02
C     4.889518438900000e+00   1.512767766422713e+00   3.304302900000000e+00 -1.31343539e+00   5.84529330e-01   9.38799520e-01
C     6.090552368800000e+00   2.247163228002492e+00   3.385846200000000e+00  1.42691444e+00  -1.14600937e+00  -3.46107620e-01
C     1.238137785310000e+01   7.019610122577053e+00   2.950020000000000e-02  3.40271280e-01   4.98077740e-01  -1.49152370e-01
C     1.362652197200000e+01   7.746709341262092e+00  -4.354799999997994e-03 -1.97281690e-01  -1.21989040e+00   3.85449360e-01
C     7.344405382000000e+00   1.498653379830006e+00   3.353181900000000e+00 -3.36627800e-01   3.95503360e-01   7.47053930e-01
C     8.580274987699999e+00   2.246253225655639e+00   3.483923700000000e+00 -1.18856113e+00  -5.69007440e-01  -6.89650840e-01
C     1.288554001400000e+00   5.973502352930111e-01  -1.010661000000006e-01  6.68341600e-02   2.47317710e-01   6.49112950e-01
C     2.504793135900000e+00   1.343032048584626e+00  -6.968970000000141e-02  1.21070668e+00  -1.10116710e+00  -3.32897700e-01
C     1.103770216260000e+01   3.622822750241095e+00   3.283914600000000e+00 -5.42659900e-01   2.25660275e+00   1.91168170e-01
C     1.223374313640000e+01   4.364023717783329e+00   3.148248600000000e+00  1.89142941e+00  -9.91978300e-02   1.65196330e-01
C     3.772055058900000e+00   6.518894929595048e-01   1.953750000000000e-02 -1.12780082e+00  -1.99211557e+00   2.90078540e-01
C     4.988730695600000e+00   1.334017329830786e+00   9.779760000000000e-02  2.62628440e-01   4.82298360e-01  -1.89237950e-01
C     3.657823853000000e+00   3.632568152121709e+00   3.253091400000000e+00 -1.63168898e+00   1.41439285e+00  -1.79669150e-01
C     4.871091430000000e+00   4.355633115305473e+00   3.286471500000000e+00 -1.74503040e-01   8.49569260e-01   3.55672330e-01
C     6.230432442000000e+00   6.062280737088576e-01   1.251099000000000e-01 -1.16182667e+00   7.03228520e-01  -1.30578080e-01
C     7.433000637199999e+00   1.335156946169446e+00   1.158960000000000e-01  1.33120803e+00  -6.55465760e-01  -4.71110020e-01
C     6.085126706600000e+00   3.666649563090114e+00   3.443981400000000e+00  1.03829311e+00  -2.35057080e-01  -5.12564240e-01
C     7.341560574799999e+00   4.370660919849223e+00   3.474791400000000e+00 -4.75388720e-01  -4.05036950e-01   3.78704210e-01
C     8.661029275099999e+00   6.161964291531048e-01  -2.641169999999704e-02  1.00869811e+00   4.06368200e-01   1.16378450e-01
C     9.925049525899999e+00   1.321265940090897e+00  -1.412793000000008e-01 -1.02749269e+00  -8.05238280e-01   5.20078380e-01
C     8.574915239599999e+00   3.668337896242219e+00   3.495392400000000e+00  8.05411400e-02   7.23720900e-02  -1.30831160e-01
C     9.815124970799999e+00   4.375477092540153e+00   3.398416800000000e+00 -4.50764090e-01   3.49583940e-01  -6.12681720e-01
C     2.531584727900000e+00   2.740556048717687e+00  -1.574673000000004e-01 -2.15766320e-01   1.46590717e+00   1.69336180e-01
C     3.773997232400000e+00   3.491101511598501e+00  -1.505550000000255e-02 -9.67253020e-01  -1.70397042e+00   5.12194600e-02
C     1.226046457450000e+01   5.805323040532215e+00   3.027197700000000e+00 -4.17017200e-02  -9.04435890e-01   1.16174412e+00
C     1.353324119550000e+01   6.483394420474972e+00   3.201812100000000e+00 -2.30014013e+00   9.14789840e-01  -5.46254450e-01
C     4.985532062300000e+00   2.766553920025095e+00   1.025532000000000e-01  1.13654152e+00  -5.06699490e-01  -3.15863300e-02
C     6.259235128900000e+00   3.436651059640999e+00   1.931757000000000e-01 -1.98714192e+00   1.13724112e+00   1.17933230e-01
C     4.850343919399999e+00   5.798929114874896e+00   3.288948900000000e+00  2.39554438e+00  -1.41503470e+00   6.30661160e-01
C     6.098505494099999e+00   6.505293225191561e+00   3.483328200000000e+00 -7.09522210e-01   3.33017500e-02  -2.34645660e-01
C     7.482705883200000e+00   2.750931202621202e+00   1.662834000000000e-01 -7.23950570e-01  -4.02809850e-01  -3.07245190e-01
C     8.691158772900000e+00   3.459604944492497e+00   5.345070000000000e-02  4.95705840e-01  -6.58559940e-01  -7.12505200e-02
C     7.335677901600000e+00   5.778525661673565e+00   3.504682200000000e+00 -8.34111200e-01   8.42512990e-01  -8.98763400e-02
C     8.529095178700000e+00   6.517462169026609e+00   3.439749000000000e+00  1.98248088e+00  -3.50849670e-01  -2.57232340e-01
C     9.907912057100001e+00   2.725023247094148e+00  -1.226258999999992e-01  7.41181830e-01   1.43236268e+00  -2.67215800e-01
C     1.114805355710000e+01   3.458264661407556e+00  -2.254434000000032e-01  1.75655060e-01  -1.10958400e-02   7.07106230e-01
C     9.787307988099998e+00   5.823367848258760e+00   3.287666100000000e+00  1.83027500e-01  -1.21233176e+00   1.25209920e-01
C     1.102135694480000e+01   6.519032578443986e+00   3.083161800000000e+00 -2.66240020e-01   9.07752000e-02   8.01943140e-01
C     3.735221254100000e+00   4.883354295172153e+00   6.630090000000000e-02  1.70277745e+00   7.33035490e-01  -5.65157000e-01
C     4.990198750999999e+00   5.593396498862973e+00   1.417281000000000e-01 -4.66287740e-01  -4.49688350e-01   2.36988510e-01
C     1.352325414940000e+01   7.901453801521281e+00   3.289658100000000e+00 -1.66739138e+00   3.11622590e-01   1.14666530e-01
C     9.762064563999997e+00   1.237364099427456e-01   3.443937900000000e+00  1.81465863e+00  -7.51778250e-01   5.00217300e-02
C     6.196057869099999e+00   4.865981336790173e+00   2.415096000000000e-01  2.01288477e+00   9.65718500e-02  -3.77995380e-01
C     7.473494572599999e+00   5.569677518672467e+00   2.438097000000000e-01 -1.53544691e+00   1.20314807e+00  -4.08152480e-01
C     6.082455287499999e+00   7.935582433217640e+00   3.541040700000000e+00  6.97238680e-01   2.94351000e-03  -2.74685560e-01
C     2.428232700900000e+00   1.071475888931448e-01   3.563720700000000e+00 -1.59853335e+00  -4.53747180e-01  -5.56877480e-01
C     8.679569378200000e+00   4.868758479168585e+00   1.135809000000000e-01  1.28491323e+00   2.80194880e-01   3.54791300e-02
C     9.936791011099999e+00   5.584116558443623e+00   4.872570000000000e-02 -6.93075440e-01  -2.21542980e-01  -2.80722890e-01
C     8.581298357100000e+00   7.933403106962934e+00   3.429798000000000e+00 -1.11953209e+00  -9.41563200e-02   3.19370740e-01
C     4.866644471400000e+00   9.186643190845119e-02   3.315189600000000e+00  1.24989700e-01   8.62133990e-01  -1.89791830e-01
C     1.116454953430000e+01   4.894163999318994e+00  -1.369361999999974e-01 -3.01954400e-01  -7.15135070e-01   6.13796020e-01
C     1.240315095160000e+01   5.594785112747230e+00  -2.125170000000054e-02 -1.32837120e+00   5.52731460e-01  -2.28101940e-01
C     1.101157474020000e+01   7.955092278972238e+00   3.187848300000000e+00  2.89251250e-01  -2.28013474e+00  -5.83994000e-03
C     7.317199620699999e+00   3.655080740911600e-02   3.272547300000000e+00  1.65169521e+00   2.91522505e+00  -1.17559760e-01
