32
Lattice="9.86 0 0 4.93 8.53901048131456 0 0 0 30 " PBC="1 1 1" Properties=species:S:1:pos:R:3:force:R:3 Energy="-255.65003507"
C     1.157463723800000e+00   9.825677118136881e-01   3.439102200000000e+00  1.84898380e-01  -2.18903470e+00  -3.55975300e-01
C     2.366403401700000e+00   1.708922499565081e+00   3.450357300000000e+00 -1.56741283e+00  -9.42797590e-01  -7.38801400e-01
C     3.549461368399999e+00   1.025935638239512e+00   3.446314200000000e+00  2.22506784e+00  -3.62741361e+00   1.01957388e+00
C     4.790798689200000e+00   1.668837395718293e+00   3.502716600000000e+00  3.00857203e+00  -1.56702942e+00  -6.19473460e-01
C     6.092802223600000e+00   9.363825950503024e-01   3.542086500000000e+00 -8.47613330e-01   4.80949730e-01   1.90065840e-01
C     7.317291959600000e+00   1.676783115750142e+00   3.501418800000000e+00  8.96600250e-01  -1.29041513e+00  -1.18202943e+00
C     8.617289920699999e+00   9.505818594071800e-01   3.351317400000000e+00 -2.27322800e+00   2.14576210e+00   2.57947800e-01
C     9.852606035300001e+00   1.720694037852390e+00   3.246333600000000e+00 -2.49323397e+00  -3.46609512e+00   1.28702366e+00
C     2.338314529500000e+00   3.080629143072281e+00   3.293150400000000e+00  1.69294246e+00   2.83097669e+00   3.49897370e-01
C     3.637502688800000e+00   3.788034841887296e+00   3.319288200000000e+00 -1.70898102e+00   5.10326260e-01   5.56773900e-01
C     4.882248660899999e+00   3.044837539084942e+00   3.394097700000000e+00 -2.59527580e+00   2.18884987e+00   6.36311040e-01
C     6.052273383799999e+00   3.776984849985547e+00   3.532049700000000e+00  1.97084961e+00   1.57213195e+00  -5.31668320e-01
C     7.281556460199999e+00   3.077184591634754e+00   3.411730800000000e+00  1.81669925e+00   2.24552074e+00   1.01398056e+00
C     8.575050173699999e+00   3.870568733071841e+00   3.386083500000000e+00 -1.92879659e+00  -2.41762482e+00   4.08124150e-01
C     9.782391299100000e+00   3.086267451692225e+00   3.320128500000000e+00 -6.45846820e-01   3.26816944e+00  -4.98848510e-01
C     1.097010323510000e+01   3.818498017945010e+00   3.286198800000000e+00  1.84215127e+00   1.18594441e+00   4.57539160e-01
C     3.605307767500000e+00   5.236833977540766e+00   3.435232500000000e+00  1.24500476e+00  -1.84301154e+00  -8.09745490e-01
C     4.885775780099999e+00   5.909821913764569e+00   3.437304300000000e+00 -3.33635642e+00   1.70287596e+00   3.13134610e-01
C     6.086857777499999e+00   5.278732511043191e+00   3.591266700000000e+00 -8.78161790e-01  -5.02125465e+00  -8.48248510e-01
C     7.276618177800000e+00   5.921403459068697e+00   3.563634000000000e+00  2.85476141e+00   1.98818057e+00   2.72061170e-01
C     8.554599449099999e+00   5.278922930976895e+00   3.536078100000000e+00  2.83451220e-01  -1.14136340e+00  -7.21285330e-01
C     9.805391918300000e+00   5.991081016074554e+00   3.503064600000000e+00 -1.57686291e+00   3.22755060e-01  -2.94110000e-02
C     1.101092516340000e+01   5.286859343487322e+00   3.381487500000000e+00 -4.60629120e-01  -2.38610170e+00   2.47422760e-01
C     1.223932828410000e+01   5.951909330178813e+00   3.455196300000000e+00  8.01239170e-01  -1.98036520e-01  -4.47041780e-01
C     4.826881309900000e+00   7.325678315497142e+00   3.369303900000000e+00 -1.14525590e-01   7.98731250e-01   8.96578390e-01
C     6.058574071700000e+00   7.992117513803623e+00   3.518688600000000e+00 -8.31341780e-01   4.40506549e+00  -1.01793938e+00
C     7.275650320200000e+00   7.349497116720158e+00   3.539849400000000e+00  1.89705122e+00  -5.02272500e-01   2.79177210e-01
C     8.521694459899999e+00   8.086682785364383e+00   3.536354400000000e+00 -3.40729840e-01   1.36458792e+00  -1.59145000e-01
C     9.788561095500000e+00   7.421928675386025e+00   3.555658200000000e+00 -1.31944498e+00  -1.69271197e+00   8.11261700e-02
C     1.104192618660000e+01   8.030987174898689e+00   3.570715200000000e+00 -1.94949818e+00   3.59428600e+00  -3.55669260e-01
C     1.221627782260000e+01   7.360000270390768e+00   3.470850000000000e+00  2.54591127e+00   8.01392500e-02   1.89833820e-01
C     1.344624833820000e+01   8.111859460033930e+00   3.389251200000000e+00  1.60273882e+00  -2.40009001e+00  -1.41289330e-01
