32
Lattice="9.86 0 0 4.93 8.53901048131456 0 0 0 30 " PBC="1 1 1" Properties=species:S:1:pos:R:3:force:R:3 Energy="-255.54272601"
C     1.150975055000000e+00   1.073470430999366e+00   3.529673400000000e+00  1.69207331e+00  -4.42002591e+00  -1.50018033e+00
C     2.436406000000000e+00   1.664381227709200e+00   3.471390900000000e+00 -1.64972408e+00   2.28993259e+00   6.98853920e-01
C     3.648576504099999e+00   9.804600278569097e-01   3.295383900000000e+00 -7.33451700e-02   8.36849570e-01  -3.04701500e-01
C     4.829343647700000e+00   1.776700212129242e+00   3.282079800000000e+00  2.25143778e+00  -2.79807417e+00   5.47835800e-01
C     6.097331710400000e+00   1.059287476152506e+00   3.270891900000000e+00 -8.42258640e-01  -1.30982269e+00  -9.79718060e-01
C     7.334120563900001e+00   1.726522766406038e+00   3.270006300000000e+00 -7.76585970e-01   1.34342576e+00   2.14464390e-01
C     8.549848556000001e+00   1.018686701462830e+00   3.379853100000000e+00  4.42737930e-01  -4.25270740e-01  -9.32043790e-01
C     9.785866160299999e+00   1.716818522555937e+00   3.419415000000000e+00  6.77420000e-04   2.64685830e-01   1.55862604e+00
C     2.387154659100000e+00   3.100796407243735e+00   3.624865500000000e+00  1.46189826e+00   3.21625820e-01  -3.44621600e-02
C     3.611963464700000e+00   3.867854352420458e+00   3.552337200000000e+00  2.39949840e-01  -3.51304980e-01   1.64601330e-01
C     4.909382049800000e+00   3.133729919033314e+00   3.440905200000000e+00 -3.02657470e+00   2.67520453e+00  -2.91383890e-01
C     6.108024633900000e+00   3.853148980912431e+00   3.330912000000000e+00  6.26595760e-01   1.00354651e+00  -7.76069050e-01
C     7.317678619500000e+00   3.164680160248807e+00   3.209895900000000e+00  2.77905711e+00  -1.01286152e+00   1.71629951e+00
C     8.650965863299998e+00   3.830786849487197e+00   3.415140300000000e+00 -4.57139219e+00   9.64814690e-01  -1.59923091e+00
C     9.812966074500000e+00   3.112593904122904e+00   3.588597900000000e+00 -2.92664940e-01   1.34260990e-01  -4.96158570e-01
C     1.101129111730000e+01   3.809453839605014e+00   3.720439200000000e+00  1.99710274e+00   1.39620936e+00  -1.26355438e+00
C     3.551918628300000e+00   5.288988887310929e+00   3.547107600000000e+00  3.59672669e+00   8.05899600e-01  -1.39736060e+00
C     4.924435558299999e+00   6.007130427832133e+00   3.267570000000000e+00 -3.49289388e+00  -1.72438245e+00   1.35413375e+00
C     6.131186266899999e+00   5.297795339599162e+00   3.212419800000000e+00 -1.33401183e+00  -1.38324507e+00   3.71422600e-01
C     7.327809128600000e+00   5.987838839185404e+00   3.103215900000000e+00  1.99295117e+00  -1.14452517e+00   9.53340100e-02
C     8.584283767899999e+00   5.238020558437066e+00   3.227248800000000e+00  2.69465420e-01   1.00482377e+00   7.24333400e-01
C     9.800922281700000e+00   5.971777216642837e+00   3.340117500000000e+00  5.99356030e-01  -4.51826200e-01  -2.94520510e-01
C     1.105457543270000e+01   5.260759601784887e+00   3.517717800000000e+00 -2.77048743e+00  -3.29196810e-01   7.45868700e-01
C     1.220011501480000e+01   6.048381618950071e+00   3.508894500000000e+00  1.96262854e+00  -2.26425540e+00   7.71093800e-02
C     4.905610304000000e+00   7.386982177265891e+00   3.313790700000000e+00 -1.07658047e+00   2.95687981e+00   1.41808580e-01
C     6.138437212300000e+00   8.134237730188969e+00   3.364968600000000e+00 -9.13495310e-01   5.13164300e-02  -1.02132424e+00
C     7.349342234700000e+00   7.386123750542337e+00   3.086788800000000e+00  2.88555020e-01   2.50100571e+00   1.30016501e+00
C     8.610024037399999e+00   8.127579095206771e+00   3.113836200000000e+00 -8.76781340e-01  -1.64359521e+00   5.84358730e-01
C     9.827297288699999e+00   7.389656851518541e+00   3.222583800000000e+00 -5.39464540e-01   8.76414380e-01  -7.14019850e-01
C     1.103746310690000e+01   8.145603323918060e+00   3.199602000000000e+00 -1.29030386e+00   8.02930740e-01   1.21573107e+00
C     1.221317828230000e+01   7.437245952385049e+00   3.368390700000000e+00  2.13227742e+00   1.11215310e+00  -6.60484600e-01
C     1.346848056760000e+01   8.156453759144892e+00   3.320371800000000e+00  1.19307390e+00  -2.08359285e+00   7.54266190e-01
