32
Lattice="9.86 0 0 4.93 8.53901048131456 0 0 0 30 " PBC="1 1 1" Properties=species:S:1:pos:R:3:force:R:3 Energy="-255.59740517"
C     1.156811731300000e+00   9.378612954951240e-01   3.414874800000000e+00 -6.32371530e-01   1.96747409e+00  -8.93444510e-01
C     2.341239252000000e+00   1.716159225556776e+00   3.445990800000000e+00  2.07747175e+00  -7.90490250e-01  -2.59739160e-01
C     3.606613083600000e+00   9.728506594478672e-01   3.421822800000000e+00  1.09496300e-02   8.64153140e-01   3.98345180e-01
C     4.906635596100000e+00   1.595839188316974e+00   3.524303100000000e+00 -2.80086416e+00   3.25592260e+00  -6.49467440e-01
C     6.137453677300000e+00   9.316698297762855e-01   3.518294100000000e+00 -1.09264674e+00   1.89912982e+00  -9.51457080e-01
C     7.333432927500001e+00   1.701343103082823e+00   3.349729200000000e+00 -1.43215138e+00   1.48275728e+00   2.08523870e-01
C     8.523010079699999e+00   1.037965481593841e+00   3.315634800000000e+00  2.09909631e+00  -3.63622049e+00  -1.04324077e+00
C     9.790495430300000e+00   1.629605680578876e+00   3.243442500000000e+00  7.42979000e-03   3.34608076e+00   1.46390611e+00
C     2.362777386700000e+00   3.145405051892303e+00   3.450094500000000e+00 -6.70275940e-01  -2.04717659e+00  -2.44241800e-02
C     3.596939684100000e+00   3.773690414352258e+00   3.438641100000000e+00  1.08445509e+00   1.00902653e+00   9.93306460e-01
C     4.808461696000000e+00   3.052596852518013e+00   3.469506300000000e+00  2.48612888e+00  -7.79432300e-02   1.33321920e-01
C     6.077159185699999e+00   3.841846575860894e+00   3.459495000000000e+00 -1.40503099e+00  -2.73169948e+00  -7.57710130e-01
C     7.326883373199999e+00   3.171956848809549e+00   3.293424900000000e+00 -2.16282610e+00  -3.52006099e+00   1.46773410e+00
C     8.533011373499999e+00   3.772660097347742e+00   3.415550700000000e+00  3.09351988e+00   2.42808860e+00  -9.09900090e-01
C     9.797576586500000e+00   3.098096713690378e+00   3.362597700000000e+00 -5.36323580e-01  -1.37944306e+00  -9.09776400e-02
C     1.100552434840000e+01   3.845314182626717e+00   3.458676300000000e+00 -6.07577920e-01   3.04414100e-02  -3.88110390e-01
C     3.626796306400000e+00   5.202319724131129e+00   3.570620700000000e+00 -1.78895120e+00   1.38304985e+00  -1.44086364e+00
C     4.776804292600000e+00   5.956522701370841e+00   3.413533500000000e+00  3.61568051e+00  -9.89728470e-01   8.58438410e-01
C     6.043787374800000e+00   5.189839106413562e+00   3.432320100000000e+00  1.64030111e+00   4.71064899e+00   2.88604200e-01
C     7.408874794799999e+00   5.956287024681594e+00   3.476052300000000e+00 -3.79637847e+00  -1.35604720e+00  -9.94354860e-01
C     8.609774973800000e+00   5.214951653114404e+00   3.431928000000000e+00 -1.61579112e+00   5.28621940e-01   8.94036200e-01
C     9.786259672900000e+00   5.982900985595134e+00   3.541244400000000e+00  3.00857820e-01  -1.44320245e+00  -8.73119940e-01
C     1.100757458750000e+01   5.260588821575287e+00   3.469251600000000e+00  1.05240197e+00   1.16629887e+00   1.20005745e+00
C     1.226464284810000e+01   5.990031230126143e+00   3.555065700000000e+00 -9.24738340e-01  -1.72500897e+00  -4.02748290e-01
C     4.836887878800000e+00   7.381669888066074e+00   3.385525500000000e+00 -3.11874370e-01   1.56175130e-01  -4.66535720e-01
C     6.066816637299999e+00   8.110436433937437e+00   3.412822800000000e+00  1.19432825e+00  -3.42353613e+00  -2.43669540e-01
C     7.333360505800000e+00   7.372944727157609e+00   3.394438200000000e+00 -1.69555223e+00  -3.92170000e-03   3.80278680e-01
C     8.508267506299999e+00   8.113323302600516e+00   3.366941700000000e+00  9.18202240e-01  -8.73752760e-01   1.09849594e+00
C     9.722127965100000e+00   7.379075822072354e+00   3.531450600000000e+00  1.08327525e+00   1.39995025e+00  -8.36476590e-01
C     1.095224500030000e+01   8.105478684452750e+00   3.469681200000000e+00  2.47447554e+00  -2.37167861e+00   7.27468880e-01
C     1.223876927140000e+01   7.409684844429067e+00   3.473347500000000e+00 -1.08283080e-01  -7.02815020e-01  -6.35055730e-01
C     1.348470100710000e+01   8.092731991168625e+00   3.275649900000000e+00 -1.55693689e+00   1.44490614e+00   1.74877831e+00
