32
Lattice="9.86 0 0 4.93 8.53901048131456 0 0 0 30 " PBC="1 1 1" Properties=species:S:1:pos:R:3:force:R:3 Energy="-255.6482778"
C     1.212913455100000e+00   8.394288768681816e-01   3.700589400000000e+00 -1.02305142e+00   4.22864657e+00   9.65259000e-01
C     2.416256301200000e+00   1.664219669630918e+00   3.850150200000000e+00  8.67370090e-01  -3.09337541e+00  -1.24922631e+00
C     3.673337182600000e+00   9.358613738506032e-01   3.625749900000000e+00 -5.34825160e-01   4.01326860e-01   3.35260050e-01
C     4.892772682600000e+00   1.682121021981400e+00   3.592329900000000e+00 -4.71834990e-01  -7.40534700e-02   1.48880960e-01
C     6.151935946700000e+00   9.867899963257336e-01   3.517865700000000e+00 -2.33329803e+00  -5.95864790e-01   9.38317300e-01
C     7.359519973199999e+00   1.680248929323765e+00   3.610341600000000e+00  1.05237931e+00  -1.02544741e+00  -8.27372280e-01
C     8.587709230500000e+00   9.727265876255928e-01   3.538017600000000e+00  4.71110360e-01  -2.25971742e+00   1.81234708e+00
C     9.811914505499999e+00   1.593423673032391e+00   3.756273600000000e+00  1.09714768e+00   2.69509368e+00  -3.96590700e-01
C     2.416869494600000e+00   3.055912891847816e+00   3.944585100000000e+00  1.27631624e+00   1.21367402e+00  -5.80268000e-03
C     3.675447025400000e+00   3.824981773992579e+00   3.909685500000000e+00 -1.58998390e+00  -2.25025985e+00  -2.32895410e-01
C     4.844621865600000e+00   3.116668976094274e+00   3.708814800000000e+00  2.54788283e+00  -1.37038988e+00  -2.70565040e-01
C     6.127870447499999e+00   3.785864652373804e+00   3.593174400000000e+00 -3.93387130e-01  -2.34550160e-01   6.57686790e-01
C     7.390337058100000e+00   3.062878248086457e+00   3.609961500000000e+00 -2.36964261e+00   1.35579428e+00  -4.19106580e-01
C     8.578476080000000e+00   3.784744078028514e+00   3.613517700000000e+00  1.44007778e+00   2.42591890e-01   1.45764101e+00
C     9.791499030399999e+00   3.129431551937891e+00   3.869275200000000e+00  1.97395803e+00  -3.91901999e+00  -1.35845092e+00
C     1.108004410850000e+01   3.772343812399562e+00   3.890812200000000e+00 -2.58932259e+00   8.94930400e-01   3.93673710e-01
C     3.693472091400000e+00   5.212131217952860e+00   3.884443800000000e+00 -3.87974805e+00   1.53459840e-01   2.89507220e-01
C     4.809982157299999e+00   5.912392839039887e+00   3.664888800000000e+00  5.64846263e+00   7.94723740e-01  -8.78592420e-01
C     6.114392566999999e+00   5.187889991881397e+00   3.587548800000000e+00  1.32118530e-01   1.09644125e+00  -8.05290190e-01
C     7.394295305800000e+00   5.880439093312784e+00   3.402533100000000e+00 -1.99206951e+00   1.51050307e+00   1.74584091e+00
C     8.614999590600000e+00   5.195963967850656e+00   3.614365200000000e+00 -1.21974120e+00   5.38152740e-01  -1.73498110e+00
C     9.820270411799999e+00   5.918081613211768e+00   3.586809300000000e+00  1.06172134e+00  -1.66179270e-01   8.21738130e-01
C     1.103807516640000e+01   5.199866637200435e+00   3.816579300000000e+00  1.42811954e+00   6.99932700e-01   3.84026000e-02
C     1.229379965690000e+01   5.912906033569735e+00   3.902508300000000e+00 -8.73811770e-01   1.57801433e+00  -1.08912463e+00
C     4.874711627600000e+00   7.328479708665315e+00   3.498855600000000e+00  7.20229910e-01  -9.34608820e-01   1.55978226e+00
C     6.130002376700000e+00   8.007929370289649e+00   3.554632500000000e+00 -2.28355200e-01  -2.91623020e-01  -6.51507330e-01
C     7.354460955100000e+00   7.349616919037193e+00   3.470203800000000e+00  1.08298735e+00  -2.70478597e+00  -4.85042420e-01
C     8.596659399000000e+00   8.023970157646644e+00   3.478072500000000e+00 -1.28483784e+00   2.30290658e+00   4.06810100e-01
C     9.807724153399999e+00   7.348733558403037e+00   3.506192100000000e+00  9.21453110e-01  -5.52472670e-01   5.40878860e-01
C     1.099720339580000e+01   8.108085217401770e+00   3.640391400000000e+00  3.15220437e+00  -1.15693795e+00  -9.03737260e-01
C     1.229652170710000e+01   7.373647743890428e+00   3.715600800000000e+00 -1.00518777e+00  -1.23802888e+00   7.07998530e-01
C     1.356839288430000e+01   8.037874143021122e+00   3.668735100000000e+00 -3.08444191e+00   2.16112301e+00  -1.51173923e+00
