32
Lattice="9.86 0 0 4.93 8.53901048131456 0 0 0 30 " PBC="1 1 1" Properties=species:S:1:pos:R:3:force:R:3 Energy="-256.03348698"
C     1.150260796600000e+00   9.369489022253360e-01   3.751587600000001e+00 -9.15002530e-01  -4.02601315e+00   2.73792940e-01
C     2.370338182600000e+00   1.631590061224323e+00   3.716259600000000e+00  8.65854700e-02  -8.51217730e-01  -4.06692600e-02
C     3.611615505300000e+00   9.484575243799656e-01   3.635140500000000e+00 -2.77230640e-01  -3.51765026e+00  -8.23731850e-01
C     4.873830833800000e+00   1.570298922581189e+00   3.461616900000000e+00 -1.26131780e+00   7.89922650e-01   1.52936552e+00
C     6.104958518999999e+00   8.676555153009744e-01   3.583180800000000e+00 -1.76428029e+00  -1.91916616e+00  -4.91534090e-01
C     7.270070546199999e+00   1.608865021853690e+00   3.703784400000000e+00  2.58376460e-01  -4.22580770e-01   2.66368690e-01
C     8.466701542399999e+00   8.546821966787104e-01   3.803626500000000e+00  2.33353641e+00   2.72503690e-01  -4.38935110e-01
C     9.753267126899999e+00   1.562722002411971e+00   3.786549000000000e+00 -2.69527560e-01   6.68567450e-01   3.91476250e-01
C     2.332656269900000e+00   3.004373730123366e+00   3.681827700000000e+00  2.81259540e-01   2.39189868e+00  -6.23301200e-01
C     3.586255585300000e+00   3.687921689827575e+00   3.508823400000000e+00 -9.17185350e-01   7.52207450e-01   1.02919836e+00
C     4.786690569499999e+00   2.996986973717537e+00   3.549191100000000e+00  2.66313795e+00  -1.70347800e-01  -1.80119170e-01
C     6.024706647900000e+00   3.743574349070556e+00   3.688517400000000e+00 -6.95679650e-01   6.72244400e-02  -6.38728900e-01
C     7.223075912799999e+00   3.035983182947915e+00   3.723316800000000e+00  2.30351213e+00  -9.58069090e-01  -2.10591850e-01
C     8.528244753700001e+00   3.674557796865956e+00   3.674139000000000e+00 -9.11861880e-01   2.16283640e-01   5.68577170e-01
C     9.782963129800001e+00   2.997024118413125e+00   3.779151900000000e+00 -2.19196665e+00  -7.10767590e-01  -5.31566330e-01
C     1.095148799880000e+01   3.737061560387355e+00   3.705373800000000e+00  1.97718184e+00   1.14712517e+00  -8.02825380e-01
C     3.638441262199999e+00   5.101249092826286e+00   3.563549100000000e+00 -8.23502990e-01   1.39901533e+00  -2.12213630e-01
C     4.849299745400000e+00   5.880771260820456e+00   3.564926400000000e+00 -9.38446280e-01  -1.99822186e+00   6.04940930e-01
C     6.060514076000000e+00   5.180208981174427e+00   3.670643400000000e+00 -9.66069940e-01  -1.52803863e+00  -8.00510360e-01
C     7.256368054899999e+00   5.856610557617820e+00   3.572381700000000e+00  3.13217145e+00  -2.93222601e+00   7.19618600e-01
C     8.538803630500000e+00   5.053852205085684e+00   3.584774700000000e+00 -1.56729704e+00   3.46224338e+00  -3.97419530e-01
C     9.718982230700000e+00   5.871714871695472e+00   3.498258600000000e+00  9.49189820e-01  -3.07777692e+00   5.08173030e-01
C     1.099346359640000e+01   5.207796987013420e+00   3.514342800000000e+00 -5.27585890e-01  -2.98168372e+00   9.51958360e-01
C     1.226447675640000e+01   5.834980304780827e+00   3.578605500000000e+00 -8.93138050e-01  -1.38567397e+00  -4.15789690e-01
C     4.843815071100000e+00   7.265089083515463e+00   3.636319800000000e+00 -1.45421896e+00   2.00787703e+00   7.23252820e-01
C     6.058413550899999e+00   7.968739240131270e+00   3.718247400000000e+00  6.29621750e-01   1.63789423e+00  -4.60774130e-01
C     7.282651413200000e+00   7.219513566710245e+00   3.632192700000000e+00 -1.22822240e-01   4.00091931e+00  -2.13389000e-03
C     8.484486073699999e+00   8.010210993889904e+00   3.603756000000000e+00  1.29044339e+00  -2.51353400e-01   1.71220910e-01
C     9.714943081700000e+00   7.229762343258654e+00   3.567312300000000e+00  2.55490830e-01   4.15816326e+00  -6.21914900e-01
C     1.100659169340000e+01   7.924060490206661e+00   3.549814800000000e+00 -1.77244038e+00   1.66485112e+00   5.78351010e-01
C     1.220064967330000e+01   7.213877905183550e+00   3.624611700000000e+00  2.04575025e+00   2.08182940e+00   1.67770270e-01
C     1.343096726090000e+01   7.969200859037818e+00   3.747331200000000e+00  6.33168200e-02   1.22608400e-02  -7.91305640e-01
