64
Lattice="7.10842262195238 0 0 0 7.10842262195238 0 0 0 7.10842262195238 " PBC="1 1 1" Properties=species:S:1:pos:R:3:force:R:3 Energy="-506.92255157"
C     1.570392725210400e-02   1.526960263002200e-03   2.027350564914480e-02 -6.30700500e-02   2.38607430e-01   1.04455230e-01
C     1.870973655213171e+00   1.778835063139220e+00   5.389925909501900e-02 -1.64688045e+00  -7.50807750e-01  -7.88080800e-01
C     3.125644510240200e-03   1.819193772322306e+00   1.724052511449440e+00  8.28525420e-01  -4.65069800e-02   1.06562689e+00
C     1.728660830749759e+00   2.308239884743780e-02   1.882176671430744e+00  4.21361390e-01  -1.39745023e+00  -3.23869568e+00
C     9.416412288267556e-01   9.210694537644755e-01   9.364146900111744e-01 -2.20281258e+00  -2.39656200e-01  -1.17732467e+00
C     2.779108196672938e+00   2.688231491782489e+00   8.892943781477183e-01 -2.39419715e+00   6.30138790e-01   3.68413370e-01
C     9.243260354193761e-01   2.687622157795502e+00   2.602004263959329e+00 -1.34072225e+00   7.21762140e-01   9.29500630e-01
C     2.640449741194242e+00   9.176802289434859e-01   2.586320666795918e+00  1.10723503e+00  -2.67140170e-01   4.74239501e+00
C     3.529071307140977e+00   7.036436690390652e+00   9.821558257178981e-02 -8.70745100e-01   1.49013971e+00  -1.01292791e+00
C     5.332637781007022e+00   1.766558959442932e+00   7.056045558524827e+00 -8.34852400e-01   1.54220092e+00   2.57170667e+00
C     3.587019452676122e+00   1.748384642077700e+00   1.760049066007536e+00 -8.19914300e-02   3.21007480e+00   1.72496403e+00
C     5.368977956714569e+00   9.883749846681360e-02   1.799483680250022e+00 -6.55698740e-01  -1.61843714e+00  -1.36361137e+00
C     4.455249299905542e+00   9.338702301343454e-01   9.377564047806993e-01  3.62557080e-01  -1.97176159e+00  -3.04332667e+00
C     6.248347199779113e+00   2.678259725446926e+00   8.677046058820282e-01 -1.31711320e-01   3.91710930e-01  -2.84059499e+00
C     4.529686000381586e+00   2.683021373423160e+00   2.719649155909912e+00 -3.00142965e+00   3.09215310e-01  -3.15529955e+00
C     6.194321766182589e+00   9.625765997060486e-01   2.617415821789072e+00  3.11596850e+00  -5.47939040e-01   1.32203990e+00
C     5.229993508974520e-02   3.511237341050790e+00   6.979720505579780e+00 -2.43337310e-01   1.20590983e+00   2.53010612e+00
C     1.755207874782185e+00   5.343504355581990e+00   7.089621624096588e+00 -5.07587980e-01   4.53902540e-01   1.59902419e+00
C     7.040927862886195e+00   5.270910798007085e+00   1.757814035767356e+00  2.53246422e+00   2.30578184e+00   9.03571770e-01
C     1.792560645291952e+00   3.664204624758189e+00   1.742272607056345e+00  9.77121380e-01  -3.29495037e+00   2.80465750e-01
C     8.526945317618624e-01   4.483294230752454e+00   8.204566978325432e-01  7.12672380e-01  -1.80789487e+00   7.83319160e-01
C     2.603723435969976e+00   6.246443635285703e+00   1.017707464104209e+00  1.46560146e+00  -9.06586370e-01  -2.76397715e+00
C     8.878448996912742e-01   6.157144786964214e+00   2.704562595162356e+00 -2.39960423e+00   3.22270806e+00  -1.84301458e+00
C     2.706091759036370e+00   4.456481473882492e+00   2.693972182806174e+00  6.57802970e-01   1.08223812e+00  -7.53769500e-01
C     3.554513346877124e+00   3.592461589949767e+00   7.088378787485707e+00  1.03987900e-01   5.61110740e-01   1.66901603e+00
C     5.376190588810179e+00   5.409643678670613e+00   7.059137509111849e+00 -9.49501600e-02  -1.68350317e+00   6.39055020e-01
C     3.571573490080898e+00   5.460322253644962e+00   1.848418345903007e+00  5.34696850e-01  -2.72175999e+00  -1.04173730e+00
C     5.376689671162329e+00   3.612554470580138e+00   1.709509887200765e+00 -7.03157240e-01  -1.37589218e+00   2.34904937e+00
C     4.497822282734758e+00   4.536589345008999e+00   8.514991794140832e-01 -9.21390970e-01  -6.88803650e-01   8.81713410e-01
C     6.264350533791971e+00   6.268158089284149e+00   8.943815207957214e-01 -1.96533955e+00  -7.56187030e-01   6.54340280e-01
C     4.500414084706235e+00   6.381283517217161e+00   2.694343953309200e+00 -2.77656571e+00  -3.53741931e+00   7.18376800e-02
C     6.232324104351371e+00   4.409875882900951e+00   2.733322988745970e+00 -1.93028474e+00   2.42959462e+00  -4.35834236e+00
C     7.090417056587766e+00   6.857395783597320e-02   3.547509986743447e+00 -1.11149028e+00  -3.18413008e+00  -5.46043900e-01
C     1.762385675606956e+00   1.751521873316810e+00   3.502232746696905e+00  1.21904751e+00   2.52554813e+00   2.54417510e-01
C     3.420693807928540e-02   1.713683242120967e+00   5.342586160632165e+00 -9.51929290e-01   1.15356002e+00  -1.09386633e+00
C     1.698145225452814e+00   7.063764523563659e+00   5.346780058893738e+00 -8.47001900e-02  -5.06000450e-01  -9.09239280e-01
C     8.691887023566318e-01   9.113804604807370e-01   4.371774737657750e+00  3.69545930e-01  -1.54110617e+00   2.30196956e+00
C     2.694836780249445e+00   2.625863826651811e+00   4.488754636672233e+00  7.19748820e-01  -1.72443993e+00  -2.98507721e+00
C     1.047591130630236e+00   2.616759643297020e+00   6.180994611117709e+00 -5.30593536e+00  -4.71624430e-01   9.09666880e-01
C     2.542145800929285e+00   7.383856225468450e-01   6.304020010317822e+00  4.88852483e+00   2.88992657e+00  -1.15994425e+00
C     3.506135057462606e+00   5.797202983514800e-02   3.601434622907219e+00  6.89565540e-01  -2.15166318e+00  -1.03473868e+00
C     5.374377514536721e+00   1.806219337187829e+00   3.516262924758903e+00 -1.29524343e+00  -1.71894983e+00   2.09767124e+00
C     3.514714141638458e+00   1.658662131768059e+00   5.389472747559875e+00 -1.75695160e-01   2.54527614e+00  -4.77612810e-01
C     5.215916344239004e+00   1.381955549976820e-02   5.396958271999866e+00  3.91557351e+00  -3.30551976e+00  -1.32319564e+00
C     4.437335364060880e+00   8.008525923415238e-01   4.507510920597365e+00 -2.31283143e+00   4.39944950e+00  -1.57780414e+00
C     6.188335479157383e+00   2.615658193212051e+00   4.416794013047413e+00  2.19640142e+00   1.53660621e+00   2.75939396e+00
C     4.357607367039185e+00   2.718901563102967e+00   6.229239973029231e+00  2.67170421e+00  -3.36313781e+00  -1.11905650e-01
C     6.184523729695860e+00   8.255003369341117e-01   6.233962382512602e+00  1.02781044e+00   1.96886325e+00  -3.52943850e-01
C     7.084722214889979e+00   3.557215542651890e+00   3.536852470877734e+00  1.32749047e+00  -1.72544143e+00   5.08303040e-01
C     1.757331658208363e+00   5.335130420482951e+00   3.513586390389795e+00  6.17595660e-01  -2.75931136e+00   1.27974804e+00
C     5.894439096533780e-02   5.256726864763816e+00   5.327037125908951e+00 -1.30966835e+00   2.54569507e+00  -3.37519053e+00
C     1.788724442856616e+00   3.458498603032712e+00   5.245955969557314e+00  8.94218430e-01   3.01276053e+00   1.76424886e+00
C     9.356108695813047e-01   4.390525761350143e+00   4.337675278928479e+00 -1.64388997e+00  -1.88482760e-01   3.14104787e+00
C     2.536944354845553e+00   6.102424433972359e+00   4.463429956993543e+00  3.87371244e+00   4.13852884e+00   7.30264330e-01
C     8.249656413846354e-01   6.200161975122954e+00   6.231032788298222e+00  1.41215349e+00   5.12212200e-02  -6.47905950e-01
C     2.617444042226873e+00   4.431690921079469e+00   6.230264581065678e+00  5.29443250e-01  -7.19416300e-01  -3.38022700e-01
C     3.633494177597230e+00   3.560950450064891e+00   3.598551802113679e+00 -2.03893917e+00  -1.80225244e+00  -1.28721640e+00
C     5.292257320050719e+00   5.387290390731309e+00   3.527354623078247e+00  1.78257879e+00  -1.81112382e+00   1.59204980e+00
C     3.487257503847577e+00   5.262729287908370e+00   5.375038597840382e+00  1.27704215e+00   1.22267727e+00  -1.88875621e+00
C     5.273103533132677e+00   3.549947464859845e+00   5.384863290911936e+00  2.55813562e+00  -5.49640440e-01  -3.30266720e+00
C     4.492964244547797e+00   4.376336496789910e+00   4.449504699249415e+00 -2.67460797e+00   3.84944366e+00   5.10512330e-01
C     6.183598923912998e+00   6.187237654367949e+00   4.414451219120314e+00  1.15288820e+00   1.95455288e+00   1.67792405e+00
C     4.389957798382806e+00   6.195884908316727e+00   6.236491843617703e+00 -3.92714880e-01   2.47562470e-01   7.17920030e-01
C     6.271388654112259e+00   4.463111144239035e+00   6.093691452446786e+00 -1.86095484e+00  -2.69753553e+00   4.34601096e+00
