64
Lattice="7.10842262195238 0 0 0 7.10842262195238 0 0 0 7.10842262195238 " PBC="1 1 1" Properties=species:S:1:pos:R:3:force:R:3 Energy="-507.12811543"
C     7.082013266113723e+00   4.105689845282220e-02   7.122433320984019e-02  1.97208050e-01  -9.91725070e-01  -2.52497300e-02
C     1.835566815395630e+00   1.747877953713346e+00   7.084674517374199e+00 -1.36338892e+00   1.51599185e+00   1.06650549e+00
C     3.431192948138280e-02   1.757692908245911e+00   1.893270928782230e+00 -2.89503790e-01   2.37878980e+00  -2.28152464e+00
C     1.732441018814849e+00   6.245580957116539e-02   1.774963460759237e+00  2.00413205e+00  -2.09608130e+00   1.16431724e+00
C     9.023838275601864e-01   9.265851632122383e-01   9.698974219939340e-01 -1.03934085e+00   3.41236030e-01  -2.97160625e+00
C     2.706259020220618e+00   2.689562828254988e+00   8.263109103654703e-01  7.76830820e-01  -1.88922483e+00   7.50777100e-02
C     1.032834258523795e+00   2.671274989380514e+00   2.681604096121184e+00 -2.59087725e+00   5.76327090e-01  -1.29697193e+00
C     2.686565064267682e+00   8.573697413190363e-01   2.692348903416671e+00 -9.86480100e-02   1.15859960e+00  -6.66098220e-01
C     3.584861690989821e+00   7.060143421996805e+00   2.763306884030940e-02 -4.90615330e-01   4.46277910e-01  -1.36654996e+00
C     5.367303496682202e+00   1.759390754988698e+00   1.000452905541778e-01 -1.80934716e+00   5.26689290e-01  -1.56983478e+00
C     3.542475872928189e+00   1.739444450032752e+00   1.798902140195480e+00  9.89887510e-01   1.05579606e+00  -1.95552979e+00
C     5.287165628012239e+00   7.102224075475360e+00   1.852945913522363e+00  1.82405885e+00  -5.97886200e-01  -1.06111663e+00
C     4.462778896565776e+00   8.488527136726572e-01   9.121886881326310e-01 -6.43818250e-01  -1.93232100e-02   6.94856820e-01
C     6.117942120551820e+00   2.691314841178140e+00   9.976013618077649e-01  4.66799334e+00  -3.15900770e-01  -1.76613401e+00
C     4.383909312659674e+00   2.734051744232973e+00   2.604742570521005e+00  6.89439910e-01  -1.67471750e+00   1.41293484e+00
C     6.202709775958415e+00   9.626821597819555e-01   2.706119126463457e+00 -9.01559370e-01  -2.35410285e+00   1.00509091e+00
C     1.522958221067140e-02   3.555635411387691e+00   5.087306141723260e-02 -5.70541960e-01  -4.17829020e-01  -7.16942770e-01
C     1.663360870204106e+00   5.326944076656854e+00   7.042120087528021e+00  4.36711303e+00   2.04620810e-01   1.92053239e+00
C     1.057129069933300e-02   5.283948640271332e+00   1.741015624684450e+00  9.25095020e-01   1.27578296e+00   1.91951674e+00
C     1.864239064538757e+00   3.514955188249502e+00   1.672831990334541e+00 -1.62620580e+00   1.71723881e+00   2.08842241e+00
C     9.871979720507164e-01   4.435591810160646e+00   8.643281762217544e-01 -4.59101432e+00  -1.45587719e+00   5.34535680e-01
C     2.575729472513249e+00   6.251463247918816e+00   8.706187037350972e-01  7.37651150e-01  -6.33161000e-03  -1.19530580e+00
C     9.325342021029164e-01   6.240146639107776e+00   2.635015494269704e+00 -3.25488358e+00  -7.10300770e-01   1.37652476e+00
C     2.698347203676106e+00   4.455689026928815e+00   2.534748065508651e+00 -3.01405966e+00  -1.66917925e+00   3.50724858e+00
C     3.595258398829607e+00   3.641513686744435e+00   7.058246112915302e+00  5.35411800e-02  -3.70023473e+00   1.41209345e+00
C     5.361836124508256e+00   5.368992457896715e+00   7.079150704324650e+00  2.28597820e-01  -9.94819210e-01   1.43070858e+00
C     3.423560990192317e+00   5.370424165296608e+00   1.698536899539176e+00  4.63927219e+00  -2.65168290e-01   4.92729300e-01
C     5.229805420111994e+00   3.624872513969883e+00   1.747099154931099e+00  1.04920248e+00  -6.79126870e-01   1.69559850e-01
C     4.448546981469822e+00   4.514225039014634e+00   8.390601506713452e-01 -1.64549496e+00  -1.56624300e-02  -6.59207670e-01
C     6.274023177703684e+00   6.186714403378891e+00   9.869440591947301e-01 -2.74013817e+00   2.93072236e+00  -3.62010739e+00
C     4.370593175649854e+00   6.165376198189723e+00   2.639139232400018e+00  7.33572090e-01   1.74803111e+00   1.26929472e+00
C     6.100840677412624e+00   4.492628584831681e+00   2.585627026916658e+00  4.86234166e+00  -2.38578664e+00   1.86828236e+00
C     7.023516705773446e+00   5.104330813898160e-02   3.645880177507222e+00  3.82122817e+00  -6.19213590e-01  -4.19088757e+00
C     1.891191786250106e+00   1.831519066303124e+00   3.543845665967063e+00 -1.46853138e+00  -3.62823515e+00   2.42679037e+00
C     7.102192442994701e+00   1.824628943341784e+00   5.320666059967323e+00  1.02206900e-02  -1.21550412e+00   9.24240760e-01
C     1.665706152079123e+00   2.989098820132620e-02   5.431130663145218e+00  2.96528053e+00  -1.88204435e+00  -3.14029719e+00
C     8.770936237312028e-01   8.782241472646876e-01   4.436104825021132e+00 -9.28636400e-02   2.12992553e+00   2.05242760e+00
C     2.787521512433291e+00   2.586526597799219e+00   4.553373183825533e+00 -3.62559763e+00   2.43588753e+00  -4.91989376e+00
C     8.714718566179496e-01   2.690022529945824e+00   6.224112383456521e+00  1.55525486e+00  -1.32158376e+00  -5.46164310e-01
C     2.728206132891416e+00   8.213788024148095e-01   6.236257265671243e+00 -2.93390246e+00   1.17192462e+00   9.31985080e-01
C     3.544920388382981e+00   7.048145186540734e+00   3.570149886282790e+00 -1.32195195e+00   1.13062436e+00   1.83121080e-01
C     5.318854051957259e+00   1.903926169952705e+00   3.486859858686214e+00 -7.63118960e-01  -2.84163744e+00   2.10422081e+00
C     3.586563447365049e+00   1.705338806975801e+00   5.377546022835361e+00  1.35345906e+00  -1.87378850e-01   8.52077740e-01
C     5.397021323708505e+00   7.076508503636796e+00   5.251178527656228e+00 -2.96786194e+00   1.26097178e+00   3.63688983e+00
C     4.374151509844975e+00   8.183317770587466e-01   4.483410595630743e+00  3.67914170e+00   1.34164324e+00  -2.54941307e+00
C     6.221868254435387e+00   2.647348323178499e+00   4.433605574712166e+00  5.13115680e-01   2.56473135e+00  -9.03799030e-01
C     4.499541810166535e+00   2.597054953625928e+00   6.268517704384494e+00 -8.19029070e-01   2.41425801e+00  -1.18146023e+00
C     6.211859097796843e+00   9.494757768173885e-01   6.278408861207545e+00  1.32658909e+00  -2.24971143e+00  -1.37809246e+00
C     1.108084375800246e-01   3.552908478302206e+00   3.499582229154586e+00 -3.40043251e+00  -2.36911870e-01   9.68378500e-01
C     1.767363206378159e+00   5.316315918576562e+00   3.499549601494760e+00  8.50990010e-01   8.68618360e-01   7.88249270e-01
C     7.085932139504130e+00   5.304605360983921e+00   5.316946648915634e+00  1.02192677e+00  -2.26325750e-01   1.35954060e-01
C     1.853925880664756e+00   3.510450723003661e+00   5.277500092523147e+00 -1.34814983e+00   1.18573918e+00   2.83314877e+00
C     9.306028436770625e-01   4.400671684039896e+00   4.406080553895681e+00  3.19422100e-02   1.25553006e+00  -8.44145600e-02
C     2.608240127702724e+00   6.240542862584615e+00   4.455613890901721e+00  3.47056400e-01  -1.54219224e+00   6.96635070e-01
C     7.797723518092351e-01   6.185162066047136e+00   6.269242265902150e+00  1.04872380e+00   2.26799920e+00  -1.72575984e+00
C     2.689296759996322e+00   4.442860812047631e+00   6.228398264706797e+00 -1.46909500e+00   9.33938030e-01  -2.05065593e+00
C     3.495280638290319e+00   3.540429713477023e+00   3.476882405612556e+00  2.11728119e+00   1.07434495e+00   2.41105375e+00
C     5.295105096320743e+00   5.281127378417680e+00   3.528593834393592e+00 -4.84386770e-01   1.97011864e+00  -6.09300900e-02
C     3.561930275038832e+00   5.347553242022116e+00   5.377880900624989e+00 -1.91152336e+00  -1.04464862e+00  -3.24393861e+00
C     5.349332266951222e+00   3.552467756099766e+00   5.324877373864316e+00 -6.63074230e-01  -9.44472550e-01   1.01425710e-01
C     4.356081401955350e+00   4.440806122489321e+00   4.391172343471659e+00  2.57675711e+00  -5.45871080e-01   1.51911587e+00
C     6.268125035118965e+00   6.213433897744078e+00   4.414324760281904e+00 -2.76603077e+00  -1.66589166e+00   6.96784880e-01
C     4.465823931563506e+00   6.165468323346878e+00   6.170034845122192e+00  1.31163270e+00   2.47992606e+00   1.84249621e+00
C     6.237026468082953e+00   4.434254218276241e+00   6.251969225440908e+00 -5.64505460e-01  -3.12789100e-02  -1.36965855e+00
