64
Lattice="7.10842262195238 0 0 0 7.10842262195238 0 0 0 7.10842262195238 " PBC="1 1 1" Properties=species:S:1:pos:R:3:force:R:3 Energy="-509.01336007"
C     7.101109901313901e+00   7.092966847781560e+00   7.067593048902565e+00 -7.82785170e-01   4.71371200e-01   2.03226319e+00
C     1.758287883219205e+00   1.834471407469888e+00   7.098897049352295e+00  1.79384739e+00  -1.60764840e+00   3.39824900e-01
C     9.670369216474200e-03   1.836624122176129e+00   1.704474351700983e+00  9.10049100e-02  -1.60111359e+00   1.74340053e+00
C     1.794521077166322e+00   5.925460252847460e-02   1.755145889336939e+00 -1.63064770e+00  -1.26642602e+00   7.37341690e-01
C     8.178161320818917e-01   9.539503866882262e-01   8.462953875508860e-01  3.52967553e+00  -2.17268833e+00  -3.80903950e-01
C     2.733768757928471e+00   2.697704175765900e+00   8.796218053202319e-01 -2.46006125e+00  -1.15407944e+00   5.38659230e-01
C     9.305778931136661e-01   2.613147356174215e+00   2.614085596875828e+00 -9.99241850e-01   2.37660265e+00   1.82169854e+00
C     2.658699834344604e+00   8.902584224234428e-01   2.692187115717840e+00  1.48225161e+00   2.69669030e-01  -1.31291880e+00
C     3.535597905369530e+00   7.086017298407118e+00   1.331067774124764e-01  1.33571392e+00   2.27444830e+00  -4.94482560e+00
C     5.332919132374322e+00   1.793862979400162e+00   2.320708058019260e-02  8.55225830e-01  -4.30459810e-01  -6.66839350e-01
C     3.560069716502273e+00   1.759802972416432e+00   1.757413405068493e+00  7.19290840e-01   1.71023481e+00   8.05817280e-01
C     5.297653679082693e+00   5.234194586742940e-02   1.815823669158164e+00  1.95449153e+00  -2.75899645e+00  -4.19265340e-01
C     4.460957505437855e+00   8.424820031521608e-01   8.915578420783788e-01 -5.56832080e-01   3.14595626e+00   1.78860132e+00
C     6.334106551225425e+00   2.737283019903346e+00   7.972040522633563e-01 -4.89420443e+00  -2.59117578e+00   4.33211624e+00
C     4.493183041796041e+00   2.738048881356425e+00   2.634639245460427e+00 -3.68771710e-01  -2.53634767e+00   2.46239220e-01
C     6.274071017387916e+00   8.929931747738091e-01   2.634802383759556e+00 -2.54855436e+00   1.37730176e+00   2.91174810e-01
C     4.701432528219180e-02   3.506005470918244e+00   7.071496354847434e+00  8.00906070e-01   2.88438691e+00  -1.53527582e+00
C     1.894496989515728e+00   5.291959690395620e+00   1.093716121158440e-02 -5.01947732e+00   2.07598814e+00   1.62750176e+00
C     7.051977550427853e+00   5.290344870029034e+00   1.768577751467012e+00  2.95470972e+00   3.70717603e+00  -1.75066827e+00
C     1.767624654162123e+00   3.573574084543070e+00   1.800446800430806e+00  1.70897172e+00   3.39463200e-02  -9.54705420e-01
C     8.825519682084222e-01   4.437271032836168e+00   8.499856540698328e-01  1.31663323e+00  -2.26522410e-01   1.54030879e+00
C     2.729416341842471e+00   6.259990156272637e+00   9.489668848420229e-01 -2.71820938e+00  -2.56014419e+00   1.41281210e-01
C     8.648385609658703e-01   6.269930574464444e+00   2.619419970462555e+00  1.57640200e-02  -1.60838958e+00   9.60774580e-01
C     2.656611450863073e+00   4.517665231225809e+00   2.704754949078452e+00 -4.49840410e-01  -2.76174428e+00  -5.38284990e-01
C     3.624399306276070e+00   3.514918650957235e+00   7.104488463500961e+00 -2.37065980e+00   1.15347572e+00  -1.32592000e-02
C     5.353462900251479e+00   5.411998130410810e+00   7.033386039739054e+00 -1.69250456e+00  -3.74164723e+00   2.85835184e+00
C     3.597448717091507e+00   5.315279439474339e+00   1.811270226880470e+00 -1.64558202e+00   1.18261537e+00   4.19593950e-01
C     5.435963395347652e+00   3.633697051978804e+00   1.767612143338311e+00 -2.64206963e+00  -2.14601436e+00  -1.28639307e+00
C     4.410170740271228e+00   4.400921189673858e+00   8.909647863791922e-01  3.33716225e+00   2.72277406e+00  -1.50039150e-01
C     6.158881516778734e+00   6.216166944073016e+00   9.078236190543676e-01  1.49679645e+00   6.63498380e-01  -9.68413770e-01
C     4.425297463606588e+00   6.226029240700230e+00   2.742640922368945e+00  1.30662218e+00   3.18836450e-01  -2.32972578e+00
C     6.260900460873355e+00   4.492766985820092e+00   2.654029671767490e+00 -1.64750910e+00  -1.53108676e+00   1.29477586e+00
C     7.092443170287145e+00   1.301786759668460e-02   3.552124632539899e+00 -5.70524300e-01  -1.06981517e+00  -8.56310910e-01
C     1.797166547728580e+00   1.738037053438218e+00   3.549071138519252e+00 -8.18179620e-01   4.50422340e-01   6.71701980e-01
C     7.106516141053316e+00   1.769289873245084e+00   5.317085192072498e+00 -3.38189140e-01  -3.93645170e-01  -8.84437000e-03
C     1.747630864943075e+00   7.018739490351674e+00   5.421553414265066e+00  1.21436901e+00   2.43136259e+00  -3.57728932e+00
C     8.681870545252476e-01   8.243729411065798e-01   4.421939942350484e+00  6.59172990e-01   1.35306067e+00   1.98687081e+00
C     2.688471116709009e+00   2.633551514631115e+00   4.447521378254208e+00 -1.04470913e+00   9.08877860e-01   2.85235150e-01
C     9.192174253350609e-01   2.627350553242784e+00   6.222886180554571e+00 -9.53703740e-01   2.19676427e+00  -2.85659412e+00
C     2.662295558842704e+00   9.278976623647952e-01   6.231381456427733e+00 -1.56634456e+00  -3.17137592e+00   2.45906526e+00
C     3.591956465438390e+00   4.544165786174300e-02   3.571313819402589e+00 -2.36268340e+00  -1.65896036e+00   1.22734153e+00
C     5.344807755953593e+00   1.767112989901935e+00   3.514699711540540e+00  4.30779090e-01   1.74833342e+00   1.14570109e+00
C     3.545410727375309e+00   1.746930898567683e+00   5.416331922429545e+00  7.62941960e-01   1.64947631e+00  -2.92405831e+00
C     5.295376069391017e+00   7.065360009020718e+00   5.402369629803567e+00 -9.35813040e-01   2.90155225e+00  -2.24900331e+00
C     4.451944096639920e+00   9.602559129732973e-01   4.479704903834711e+00 -2.52274750e-01  -3.11464747e+00  -6.82899400e-01
C     6.206374594324382e+00   2.666855256532303e+00   4.430160335520930e+00  8.79038480e-01   1.28912780e-01  -7.34294390e-01
C     4.464473118013028e+00   2.633949657382061e+00   6.236136138149798e+00 -3.92821320e-01   8.83115630e-01  -3.02885300e-01
C     6.165681078435894e+00   9.191685193874352e-01   6.229498364191469e+00  2.12427253e+00  -2.13451648e+00  -6.82560200e-01
C     7.091137779557208e+00   3.606528660725164e+00   3.565057056896691e+00  6.57456800e-01  -3.06332883e+00  -1.62770314e+00
C     1.718344590254032e+00   5.353710628779786e+00   3.570985268109093e+00  1.23709563e+00   3.85861890e-01  -2.13019975e+00
C     7.083631711775845e+00   5.281963755423150e+00   5.293688316608351e+00  2.14708360e-01   2.50145030e-01   9.69762870e-01
C     1.758083160647749e+00   3.607370795552955e+00   5.263711742998680e+00  6.60163750e-01  -3.15590552e+00   2.44566933e+00
C     8.710516777568813e-01   4.423803273171864e+00   4.399470716038246e+00 -2.88172520e-01   1.49910287e+00   7.14691500e-01
C     2.629662354447260e+00   6.161485758489797e+00   4.429583487025318e+00  7.35043250e-01   2.01976041e+00   2.09266216e+00
C     8.755802405554047e-01   6.140291427774457e+00   6.225934627595158e+00  2.20605210e-01   1.24132555e+00   6.30393270e-01
C     2.627595225149364e+00   4.455609839100828e+00   6.225506771637660e+00  2.61945646e+00  -2.83496744e+00  -1.14069093e+00
C     3.563130674366671e+00   3.544468079451671e+00   3.591447075873441e+00 -5.78752210e-01  -2.99955800e-01  -2.23887433e+00
C     5.320584810696777e+00   5.312153368458742e+00   3.537579164922176e+00 -9.93929030e-01   5.39714350e-01   1.33221570e+00
C     3.496522835143164e+00   5.242371547451178e+00   5.333538773574107e+00  1.50552751e+00   3.31462861e+00  -1.90313250e-01
C     5.311096559267826e+00   3.540651354094314e+00   5.281753346113597e+00  7.91200720e-01  -1.39715917e+00   2.31231761e+00
C     4.407167360630052e+00   4.374931872480198e+00   4.447818652488177e+00  1.15935565e+00   2.17151013e+00   4.17447030e-01
C     6.115610913353591e+00   6.193555691476831e+00   4.443794858779899e+00  3.02089770e+00   2.86592700e-01   9.13823470e-01
C     4.365501839032506e+00   6.269654625498337e+00   6.284205424433024e+00  1.34383564e+00  -2.66215398e+00  -2.23560286e+00
C     6.249648751960835e+00   4.363913177661162e+00   6.207236988156640e+00 -1.42840000e+00   2.93100295e+00  -1.44246880e+00
