76
Lattice="10.7446858958278 0 0 5.37234294791388 9.3051709414712 0 0 0 30 " PBC="1 1 1" Properties=species:S:1:pos:R:3:force:R:3 Energy="-613.35057049"
C     5.198869996144500e-02   2.244090854916040e-02  -1.614494999999998e-01  8.29794380e-01  -1.08856399e+00  -3.81269000e-03
C     1.250356105787977e+01   8.480625692198480e+00  -3.897930000000116e-02 -3.51802440e-01   1.09253128e+00   4.48521900e-02
C     1.391791527620931e+01   8.342821786731353e+00  -2.128589999999875e-02 -1.42970140e-01   2.21911320e-01  -3.10729890e-01
C     1.444746121121356e+01   7.037379442492942e+00  -7.328519999999727e-02  1.34995470e+00  -1.67990720e-01  -2.54225210e-01
C     8.258629579672563e+00   9.006726378544798e+00  -1.921314000000010e-01  5.76947960e-01  -1.77659699e+00   2.29273850e-01
C     9.671783831480791e+00   8.823714788893032e+00  -1.444727999999991e-01  3.00955830e-01   9.28310600e-01   5.60253300e-02
C     1.024153659601656e+01   7.526476441665581e+00  -1.161776999999979e-01 -4.50722680e-01   2.47281800e-01  -5.42286600e-01
C     1.163854948226123e+01   7.359682369186594e+00  -1.375020000000013e-01  8.32318220e-01   1.78784000e-02   4.49981600e-01
C     1.220661452525926e+01   6.061088909915151e+00  -2.092914000000015e-01 -1.24318643e+00  -2.35659320e-01  -2.81872490e-01
C     1.358842916074523e+01   5.916474456785329e+00  -1.883964000000020e-01  1.75293430e+00  -1.34713839e+00   7.67648800e-02
C     5.988954579107982e+00   7.996296476512079e+00  -1.176336000000013e-01  9.99556980e-01   4.26983320e-01   4.90227300e-02
C     7.434796905318913e+00   7.811676674166752e+00  -1.238297999999993e-01 -1.50182439e+00   1.52466306e+00  -4.07946990e-01
C     7.972929832124160e+00   6.507435906651823e+00  -1.588950000000011e-01  9.27258990e-01   1.03637730e+00   1.85271730e-01
C     9.407441134925529e+00   6.399660997480299e+00  -1.978488000000027e-01 -9.05114250e-01  -1.65117108e+00   3.53935280e-01
C     9.954411458436665e+00   5.070760410353856e+00  -2.408991000000000e-01 -7.72447070e-01   3.26615120e-01  -3.25885240e-01
C     1.134575061329184e+01   4.910606135650815e+00  -3.187181999999993e-01  8.17618100e-01   5.88140050e-01   6.30917720e-01
C     1.192670234904746e+01   3.628774173845304e+00  -3.326834999999981e-01 -4.00736950e-01  -1.10612833e+00  -1.46138220e-01
C     5.150903784243439e+00   6.864812814169618e+00  -1.056800999999972e-01 -1.01602309e+00  -4.17954040e-01   1.27541220e-01
C     5.709304895572719e+00   5.550109777708298e+00  -1.373058000000000e-01 -3.16997980e-01   1.69337020e-01  -7.22923200e-02
C     7.122608444791529e+00   5.379934392213134e+00  -1.447743000000017e-01 -3.61949480e-01   2.43498380e-01  -1.42547900e-01
C     7.691750696274464e+00   4.090916605200917e+00  -1.796097000000003e-01 -7.16966080e-01  -7.11991660e-01   8.05495600e-02
C     9.082324131088969e+00   3.926648235270174e+00  -2.372574000000007e-01  1.06851384e+00   2.80403610e-01   9.08472600e-02
C     9.647348374253870e+00   2.620979961481339e+00  -2.454377999999977e-01  1.58073901e+00   6.52033880e-01  -2.67122100e-01
C     1.109045112790088e+01   2.468121871312352e+00  -3.226686000000001e-01 -5.72727190e-01  -5.39993120e-01   2.51893830e-01
C     3.442232472826836e+00   4.579967729880821e+00  -2.597261999999994e-01 -9.25030660e-01   1.12823265e+00   2.45813600e-01
C     4.837861765868157e+00   4.408013195701929e+00  -1.992146999999989e-01  5.50932130e-01   1.41604831e+00   2.10642700e-01
C     5.406064340845708e+00   3.135959944985554e+00  -1.601730000000003e-01  1.45494810e+00  -1.07811896e+00  -7.15086400e-02
C     6.839739492190338e+00   2.945522735871958e+00  -1.447344000000008e-01 -9.39753700e-02  -1.74344920e-01  -7.80268500e-02
C     7.418230157640568e+00   1.620253491704851e+00  -1.278396000000015e-01 -4.02140970e-01   1.46017618e+00   4.04897480e-01
C     8.835541635870365e+00   1.488026547388904e+00  -1.690694999999991e-01 -7.04781140e-01  -7.87534620e-01   2.50177990e-01
C     9.406374832296812e+00   1.901173903883878e-01  -9.497100000000103e-02 -8.55197350e-01  -4.32206490e-01  -3.82674600e-02
C     2.584428486233445e+00   3.455766759574550e+00  -3.106928999999994e-01  6.55919110e-01  -3.48739470e-01  -1.76631440e-01
C     3.167816310899747e+00   2.146769746985350e+00  -3.084090000000010e-01  1.64155970e-01  -3.80685100e-02   5.02781100e-01
C     4.586500691370416e+00   1.998489242608586e+00  -1.841393999999994e-01 -4.81041790e-01  -1.34586317e+00  -3.43811160e-01
C     5.166381181941811e+00   6.660285901322093e-01  -1.387757999999977e-01 -1.09582639e+00   5.26406390e-01   4.00815810e-01
C     6.562527240651492e+00   5.048329737492731e-01  -2.550600000000003e-02  3.86148520e-01  -1.00330083e+00  -7.69001750e-01
C     9.099496126924059e-01   1.132817279441583e+00  -2.930588999999983e-01  2.89724250e-01   1.57786407e+00   2.58385300e-01
C     2.343250258009992e+00   9.890889577403770e-01  -2.794094999999999e-01 -1.20031921e+00   3.76140930e-01  -8.95861500e-02
C     1.607442450498019e+01   9.288186676741764e+00   3.620469900000000e+00 -4.46081500e-01   8.04813400e-01  -2.13063900e-01
C     1.183320714234803e+01   8.780826976875444e+00   3.454294500000000e+00 -8.44801150e-01   1.22918554e+00   7.36786220e-01
C     1.321921139948356e+01   8.985910431996890e+00   3.509367600000000e+00  1.69547009e+00  -8.66179590e-01  -1.68275190e-01
C     1.409652644630905e+01   7.836684134964583e+00   3.508523400000000e+00 -7.01723060e-01   1.16998910e-01   2.73513730e-01
C     7.573620396084094e+00   8.302713522325252e+00   3.592172700000000e+00  2.07989350e-01   5.99498090e-01  -1.65490060e-01
C     8.991621790595529e+00   8.468843484754252e+00   3.567612000000000e+00  7.72229900e-02   6.29162400e-02  -2.54884130e-01
C     9.858387543634104e+00   7.320029127639459e+00   3.532161000000000e+00 -4.33619470e-01   7.74599490e-01   4.60510320e-01
C     1.126974426321469e+01   7.493031982376452e+00   3.539683200000000e+00 -2.51055100e-02  -4.67433590e-01  -4.10430500e-01
C     1.213052415173837e+01   6.355057777199921e+00   3.593963700000000e+00 -1.77246970e+00   9.27632700e-02   9.40254000e-02
C     1.350970462002910e+01   6.528868506877925e+00   3.576614100000000e+00  1.58570544e+00   1.99632670e-01  -2.60828240e-01
C     4.769866384980905e+00   7.983189771036252e+00   3.517888800000000e+00 -5.50644260e-01   3.28446230e-01   1.49046020e-01
C     5.597087664650268e+00   6.834415333104791e+00   3.481753200000000e+00  2.49717450e-01   1.43934170e-01   6.44032510e-01
C     7.003278822761001e+00   7.004679210775595e+00   3.527019300000000e+00  3.89798550e-01  -1.94580290e-01  -9.29664600e-02
C     7.862227709360466e+00   5.866605812476843e+00   3.527880900000000e+00 -6.14234000e-03  -1.99645820e-01   3.81226140e-01
C     9.276641184632744e+00   6.030970677030234e+00   3.594305700000000e+00 -2.97102890e-01  -2.03404670e-01  -5.03854380e-01
C     1.011147072266447e+01   4.884043036375235e+00   3.629617800000000e+00  4.30562000e-03  -7.46695000e-03   3.57082170e-01
C     1.151692205542756e+01   5.071175234874362e+00   3.679157100000000e+00  1.11608047e+00  -1.43598843e+00  -8.79269600e-02
C     1.236973325510036e+01   3.896741136713885e+00   3.734293800000000e+00  3.03043260e-01   4.75352110e-01  -5.50454910e-01
C     3.624223491323279e+00   5.391083289723185e+00   3.588983400000000e+00 -1.32615410e-01  -4.56267060e-01  -4.96220000e-02
C     5.037858406655243e+00   5.536637565117947e+00   3.563598000000000e+00  2.12331060e-01  -3.03769380e-01  -7.80497980e-01
C     5.899867057458453e+00   4.386886735599753e+00   3.510534000000000e+00 -8.16120150e-01  -4.35388100e-02   7.23376800e-01
C     7.310753911924632e+00   4.544435190232756e+00   3.545627700000000e+00 -4.13906780e-01   8.95127750e-01  -4.45929380e-01
C     8.144207807820578e+00   3.408763828760457e+00   3.557080500000000e+00 -1.15834290e-01  -1.42025600e-01   3.01376110e-01
C     9.546700376427383e+00   3.570778021030984e+00   3.647985300000000e+00  8.88580400e-01   4.92639200e-02  -4.36740850e-01
C     1.041827088438329e+01   2.426757967139607e+00   3.654595800000000e+00 -1.15905340e+00   3.87165590e-01   6.26825330e-01
C     1.180647887659691e+01   2.567419118395570e+00   3.754816800000000e+00  1.45869978e+00   1.26037098e+00  -6.67702520e-01
C     3.062346259211629e+00   4.081094438963490e+00   3.611040600000000e+00 -1.13222254e+00  -3.98117000e-03   6.07682200e-01
C     3.902942792506459e+00   2.941837981231427e+00   3.592663800000000e+00 -2.78346410e-01  -7.30144800e-02   1.97351630e-01
C     5.300274742198924e+00   3.080834065199387e+00   3.570889200000000e+00  6.99392660e-01   7.98346410e-01  -6.37708190e-01
C     6.134806330090639e+00   1.943399187730538e+00   3.508758000000000e+00  9.54219290e-01  -2.06890560e-01   3.86061590e-01
C     7.549216259616570e+00   2.122285888156312e+00   3.542077500000000e+00  8.75628100e-01  -7.09802670e-01  -1.57523500e-01
C     8.429831751609957e+00   9.774237162948648e-01   3.557278800000000e+00 -1.05430854e+00   4.22822330e-01  -5.88663600e-02
C     9.834114169993985e+00   1.143154952149085e+00   3.635221500000000e+00  4.84372480e-01  -1.21686886e+00  -3.00119180e-01
C     1.952119838047295e+00   1.445074157484992e+00   3.672745500000000e+00 -1.07602280e+00   1.01619894e+00   4.04873180e-01
C     3.345284676207162e+00   1.639790721662184e+00   3.631387800000000e+00  1.55478210e-01  -6.36833170e-01  -3.25758320e-01
C     4.173246801969330e+00   4.859935385607302e-01   3.545917200000000e+00  9.45347900e-01  -5.11734090e-01   3.43079010e-01
C     5.609888131303515e+00   6.299370888657783e-01   3.515717100000000e+00 -1.06155804e+00  -2.43885540e-01  -4.41300500e-01
C     1.369074177903478e+00   1.733913456237378e-01   3.648235800000000e+00  2.39959400e-02  -1.76368256e+00  -2.47699110e-01
