52
Lattice="8.88768389401873 1.33226762955019e-15 0 4.44384194700937 7.69696003302603 0 0 0 30 " PBC="1 1 1" Properties=species:S:1:pos:R:3:force:R:3 Energy="-416.92984431"
C     1.310565770768400e+01   7.493367586307270e+00  -2.112395999999990e-01 -1.31689308e+00  -2.96302373e+00  -1.18353620e-01
C     9.390495323110624e+00   7.179013809603630e+00  -2.262905999999987e-01 -9.22498140e-01   9.06336300e-01   1.28471573e+00
C     1.074845245446261e+01   6.809901627128163e+00  -6.694740000000010e-02 -8.52362810e-01  -1.29391760e+00  -5.04848130e-01
C     1.105079039565928e+01   5.377786617303091e+00  -5.734410000000167e-02  1.79549040e-01   3.62006485e+00  -2.40727830e-01
C     6.988224624433663e+00   6.638516266015364e+00  -3.107667000000021e-01 -1.95179292e+00   7.80405240e-01   1.04326867e+00
C     8.304757638732406e+00   6.218675190282974e+00  -1.503957000000007e-01  2.64902549e+00  -8.81126500e-02  -1.30886444e+00
C     8.709485831160649e+00   4.857010840460492e+00  -1.817916000000004e-01 -3.28619744e+00  -1.59196423e+00   1.08041763e+00
C     1.003312801492630e+01   4.437375273560903e+00  -7.000710000000154e-02  3.55778730e-01  -2.55301120e-01  -7.56528650e-01
C     1.042979654454552e+01   3.093207268430616e+00  -2.130248999999971e-01 -2.68423166e+00  -3.03279729e+00  -1.59647620e-01
C     4.528882819068284e+00   6.116968638020958e+00  -1.965858000000011e-01  8.10352790e-01  -1.97304229e+00  -2.30233270e-01
C     5.923956340337346e+00   5.690924967048391e+00  -2.254614000000004e-01 -7.45458220e-01  -1.14150546e+00   2.89513610e-01
C     6.236925862330481e+00   4.277266574648857e+00  -1.085795999999988e-01 -3.15484690e-01  -2.74039550e-01  -1.19372054e+00
C     7.607621488750729e+00   3.817060793248739e+00  -1.548857999999989e-01 -1.26655710e-01   5.55907285e+00  -7.85549000e-03
C     7.889955564401054e+00   2.526932220853879e+00  -1.941233999999987e-01  4.80644672e+00  -5.32421620e+00   5.63210480e-01
C     9.371536867962194e+00   2.056819990077549e+00  -2.337665999999992e-01 -1.53456033e+00   3.38960198e+00  -5.19225140e-01
C     3.501152025570248e+00   5.068383294381947e+00  -1.822890000000008e-01  2.14107657e+00  -2.25995040e-01   6.49961470e-01
C     3.857416077677836e+00   3.684768523037111e+00  -2.112945000000011e-01  2.87385650e-01  -8.20117960e-01  -8.30858440e-01
C     5.190764278817029e+00   3.248771605171351e+00  -2.207651999999989e-01  2.34813170e+00   1.88098494e+00   1.10191098e+00
C     5.607194484678713e+00   1.889036652319590e+00  -1.543355999999996e-01 -1.71215307e+00  -8.78902860e-01  -3.39093660e-01
C     6.945891027363954e+00   1.470842341185618e+00  -8.719469999999774e-02 -5.31929960e-01   1.92460463e+00  -7.24947480e-01
C     7.291626062582562e+00   1.232578864068152e-01  -1.158375000000014e-01  4.41914440e-01  -2.29087960e-01   1.95780070e-01
C     2.873980434176723e+00   2.653469781929477e+00  -3.381512999999998e-01  1.42489220e-01   1.76377375e+00   7.53978370e-01
C     3.225544101356652e+00   1.289596866395988e+00  -4.004159999999999e-01  2.37066140e-01  -3.54728700e-01   1.03366610e+00
C     4.609407320309333e+00   8.706217756365726e-01  -2.521784999999994e-01 -9.39086940e-01   3.88754540e-01  -4.59391470e-01
C     7.859460635176507e-01   7.016117733586319e-01  -3.654701999999972e-01  2.03543611e+00   1.97008588e+00   1.14498669e+00
C     2.176876191040937e+00   3.453348105203917e-01  -3.137048999999976e-01  5.18874820e-01  -1.73954266e+00  -1.24145419e+00
C     2.176205394596475e-01   2.650014077784808e-01   3.482276100000000e+00 -1.27837260e-01  -1.28639125e+00   1.70896957e+00
C     7.098377290345855e+00   7.398508480596742e+00   3.575826000000000e+00 -1.48795213e+00  -1.38478953e+00   1.17377166e+00
C     4.004836932385224e+00   1.349133929802442e-01   3.667725300000000e+00  2.79139720e-01  -1.64484810e+00  -3.00113940e-01
C     9.464294694891084e+00   6.836084299092613e+00   3.688672800000000e+00  8.06026200e-02  -8.83153730e-01   2.58860400e-01
C     1.083135765879753e+01   7.180297200719033e+00   3.627614100000000e+00 -6.15166540e-01   2.18832180e+00  -3.52846310e-01
C     1.179525777184071e+01   6.176621078858261e+00   3.558691200000000e+00  2.22454798e+00  -1.70850440e-01   4.00049170e-01
C     4.284362549373977e+00   6.555980763008870e+00   3.555748200000000e+00  5.20139700e-01   1.28363493e+00  -9.38034070e-01
C     5.329341625234509e+00   5.565783403613435e+00   3.527384100000000e+00 -1.18608692e+00   1.98699038e+00  -8.86102800e-02
C     6.660063782980665e+00   6.000993846103330e+00   3.605712000000000e+00  3.81760745e+00  -4.56593000e-03   2.65590310e-01
C     7.775544811269254e+00   5.049062000466639e+00   3.740184600000000e+00 -2.04785395e+00  -9.39611160e-01  -1.02412997e+00
C     9.133790926147933e+00   5.426573798453246e+00   3.777689700000000e+00  1.26607190e-01   6.22828610e-01  -9.41305780e-01
C     1.014307084211784e+01   4.421505604401449e+00   3.645326700000000e+00 -5.25344600e-02  -1.05170311e+00   1.53665773e+00
C     1.152840572870980e+01   4.775852939360168e+00   3.607467300000000e+00 -3.10102640e+00   1.55218021e+00  -7.53980270e-01
C     3.605169033162784e+00   3.815197051347075e+00   3.466837500000000e+00  1.28050242e+00  -1.89389289e+00   1.05601137e+00
C     4.955510930834670e+00   4.227128192165435e+00   3.439718100000000e+00  2.08265168e+00  -1.25130728e+00   6.68126610e-01
C     6.054064431955858e+00   3.287376400928218e+00   3.523938600000000e+00 -8.31713890e-01  -9.16273270e-01  -3.78214200e-01
C     7.432738710488390e+00   3.643897511338610e+00   3.602147100000000e+00 -3.13963100e-02   9.38674030e-01   3.88812660e-01
C     8.460720446408924e+00   2.641804346277609e+00   3.596911200000000e+00 -1.90893138e+00   3.27683810e-01   6.32956070e-01
C     9.787578283584850e+00   2.994999138441437e+00   3.753333600000000e+00  6.62047320e-01   2.74595205e+00  -1.85669437e+00
C     1.888076814443304e+00   2.035788354673976e+00   3.602554800000000e+00  2.39809431e+00  -1.84786337e+00   1.66862042e+00
C     3.285645420163111e+00   2.400813682282314e+00   3.643008300000000e+00 -6.35066370e-01   2.36904541e+00  -1.35472840e+00
C     4.356721357848822e+00   1.498965185864831e+00   3.628694100000000e+00 -8.75043860e-01  -6.71852560e-01  -1.06660200e-01
C     5.706892656417313e+00   1.893766819106026e+00   3.548119500000000e+00  7.50958500e-01   6.73821750e-01   2.38390560e-01
C     6.744640312738905e+00   9.339577506354335e-01   3.561073800000000e+00 -1.17788352e+00  -2.68822258e+00   3.74289400e-02
C     8.089855038848084e+00   1.281501588684435e+00   3.542122200000000e+00  1.08304832e+00  -4.47972020e-01  -3.86584160e-01
C     1.600267657122435e+00   6.107565492861108e-01   3.674070900000000e+00 -1.24956241e+00   2.43112795e+00  -2.05867572e+00
