52
Lattice="8.88768389401873 1.33226762955019e-15 0 4.44384194700937 7.69696003302603 0 0 0 30 " PBC="1 1 1" Properties=species:S:1:pos:R:3:force:R:3 Energy="-407.50489451"
C     4.463650108789576e+00   7.620383590418331e+00  -1.062753000000001e-01 -2.71020066e+00  -1.29356363e+00   1.11417248e+00
C     9.504322957048794e+00   7.345266991707626e+00  -7.505730000000099e-02 -7.45430490e-01   4.51482713e+00   7.19609710e-01
C     1.085738932933739e+01   7.077781390079462e+00   1.650747000000000e-01  1.92659034e+00  -2.63891631e+00  -1.59313080e-01
C     1.139287268274021e+01   5.668541052737147e+00   2.308464000000000e-01 -7.20459462e+00   1.09216878e+00  -1.90840371e+00
C     7.069790899044896e+00   6.784684923647477e+00  -2.918787000000016e-01  2.20850255e+00   2.47605901e+00   6.96875890e-01
C     8.428450246296023e+00   6.407866698729174e+00  -1.654971000000032e-01  1.55609660e+00   9.29947220e-01  -2.09425140e-01
C     8.796993033667984e+00   5.062062242926910e+00  -1.117034999999973e-01  4.41804510e-01  -8.08264240e-01   1.25899392e+00
C     1.015070940664019e+01   4.674991821187848e+00   5.327670000000000e-02  3.44392733e+00   4.09327400e-01  -2.27100900e-02
C     1.052136457425776e+01   3.293861166723094e+00  -1.140180000000015e-01  9.48620700e-01   1.05157022e+00  -8.17180260e-01
C     4.818593228780601e+00   6.085273172374221e+00   4.444740000000000e-02 -5.32852500e-02   1.13714099e+01  -1.30370377e+00
C     6.095207566488098e+00   5.809108478616229e+00  -8.008740000000003e-02  2.58829660e+00   3.41382160e+00  -5.11665070e-01
C     6.450325729602838e+00   4.565714923888325e+00   3.373530000000000e-02 -2.53705640e-01  -8.01763462e+00  -1.20167591e+00
C     7.745815019207038e+00   4.083014314982931e+00  -3.227459999999738e-02  3.01083158e+00   4.21472600e-02  -1.78695420e-01
C     8.170798332095032e+00   2.717656809798855e+00  -2.676090000000286e-02 -8.05582400e-02  -1.40244238e+00  -9.52054900e-02
C     9.571134917548695e+00   2.256269545034132e+00  -2.065319999999993e-01 -3.05715198e+00   3.72085368e+00   3.69404160e-01
C     3.809346507166373e+00   5.329817161186523e+00  -8.782499999998805e-03 -5.04486028e+00  -8.38380534e+00   1.96817602e+00
C     4.095425897100674e+00   3.815414798346324e+00   4.860000000000001e-03 -3.86684720e+00   4.63166135e+00  -2.69776394e+00
C     5.398357733314107e+00   3.517051610044210e+00  -1.569435000000006e-01  2.43231063e+00   2.43638588e+00   2.49149221e+00
C     5.655415147100298e+00   2.220555958373333e+00   6.083040000000000e-02  6.14435586e+00  -3.66778305e+00  -6.99534120e-01
C     7.184433130247219e+00   1.712715846496354e+00   1.041822000000000e-01 -3.23206246e+00   2.38917532e+00  -3.32833640e-01
C     7.455315247414582e+00   3.656005214313802e-01   1.333053000000000e-01  2.38040971e+00  -1.53099700e+00  -9.45169340e-01
C     3.006815135683411e+00   2.999248168256397e+00  -3.337623000000001e-01  4.73319780e-01  -4.10291030e+00   1.50356646e+00
C     3.377477324479102e+00   1.476262232560343e+00  -4.355474999999984e-01 -2.22569690e-01   4.67754417e+00   1.14499426e+00
C     4.700131820080792e+00   1.282511814688373e+00  -1.099886999999988e-01  3.16951000e-01  -7.07787894e+00  -5.92080100e-01
C     9.496489353768955e-01   9.347717811282062e-01  -3.713700000000024e-01  3.34533597e+00  -3.19211894e+00   1.13382863e+00
C     2.428842296053098e+00   4.994973769004623e-01  -3.682055999999996e-01 -4.75288653e+00  -1.06142186e+00  -9.25364540e-01
C     8.903404958545369e+00   3.033341159982880e-02   3.315755100000000e+00  1.97280683e+00   3.03659816e+00   1.31905233e+00
C     6.831520448561731e+00   7.069285100750347e+00   3.607264800000000e+00  9.70489640e-01   5.91120689e+00   1.93854020e-01
C     8.211216499633073e+00   7.364842978030326e+00   3.587985900000000e+00 -2.35566550e-01   7.42969991e+00   9.98491930e-01
C     9.270222784886904e+00   6.531369502404144e+00   3.602079000000000e+00  1.28014347e+00  -3.28860230e-01  -4.33473150e-01
C     1.063793472757244e+01   7.031742793356021e+00   3.401040300000000e+00 -4.23448300e-01  -3.46366161e+00   1.18904763e+00
C     1.164543728452457e+01   6.036743608476269e+00   3.395513100000000e+00  8.73022510e-01  -2.44940652e+00  -9.18226330e-01
C     4.188042452846483e+00   6.366179116541090e+00   3.288985800000000e+00 -1.39052004e+00  -1.45535291e+00   4.90023040e-01
C     5.270513245523544e+00   5.332558433501207e+00   3.347146500000000e+00 -1.82773081e+00   4.17470297e+00  -1.11652894e+00
C     6.592562756903135e+00   5.785804161824597e+00   3.487833900000000e+00 -1.37294983e+00  -4.68808965e+00   1.82584324e+00
C     7.586924695451325e+00   4.761718780748278e+00   3.823481100000000e+00 -2.86473900e+00   3.40847494e+00  -3.03277771e+00
C     8.901703592552689e+00   5.163255638863725e+00   3.740801400000000e+00  3.96784100e-01   1.42635910e+00   5.84640200e-02
C     9.822130933029140e+00   4.203632913795459e+00   3.619443300000000e+00  6.36997643e+00  -1.30843442e+00   1.17646140e-01
C     1.125085811427276e+01   4.610216668602577e+00   3.410202000000000e+00  9.41751450e-01   7.36759820e-01   4.22308320e-01
C     3.486778640090689e+00   3.682078512476226e+00   3.339219300000000e+00  8.66562880e-01  -1.46003300e-01  -2.59107500e-02
C     4.944832867353508e+00   4.057884433211384e+00   3.117741600000000e+00 -3.09949744e+00  -4.55617975e+00   2.98689136e+00
C     5.952932898791865e+00   2.965478756729576e+00   3.389702400000000e+00 -5.98990300e+00   2.83003584e+00  -2.85535868e+00
C     7.174718137472270e+00   3.513730987548068e+00   3.430587900000000e+00  4.68543113e+00  -4.31405847e+00   2.18574514e+00
C     8.194356871194440e+00   2.487682188937696e+00   3.509699100000000e+00  1.37120165e+00  -1.72622637e+00  -4.27779700e-01
C     9.573806022432171e+00   2.821494881201979e+00   3.709662600000000e+00 -7.73982810e-01   5.22437070e-01  -1.58031046e+00
C     1.739673157252395e+00   1.892696864692256e+00   3.609101700000000e+00  1.78975664e+00  -1.66802478e+00   1.28089439e+00
C     3.257123242716315e+00   2.307393985066997e+00   3.632538000000000e+00 -4.82969423e+00  -1.65394550e+00  -9.19506120e-01
C     4.140256617229147e+00   1.216256536689333e+00   3.628591800000000e+00  1.77634926e+00  -6.95657160e-01  -2.27088667e+00
C     5.526316916620305e+00   1.632323792919015e+00   3.266769300000000e+00  4.59161200e-02  -1.82888164e+00   3.09053101e+00
C     6.579692365203559e+00   6.392973388949525e-01   3.400041300000000e+00 -1.63528315e+00   2.96528361e+00  -1.87140423e+00
C     7.914315149667822e+00   1.093693377894826e+00   3.289315500000000e+00 -3.06138530e-01  -1.03305853e+00   1.20420467e+00
C     1.367611734038387e+00   4.829950176265420e-01   3.613624500000000e+00  1.41561220e+00  -1.11576718e+00  -1.67268671e+00
