76
Lattice="10.7446858958278 0 0 5.37234294791388 9.3051709414712 0 0 0 30 " PBC="1 1 1" Properties=species:S:1:pos:R:3:force:R:3 Energy="-604.75006823"
C     1.078306962495144e+01   9.857981840374461e-02  -5.215865999999991e-01 -2.05251167e+00  -1.17341475e+00   2.87386730e-01
C     1.247655461221070e+01   8.492342949549547e+00  -5.740827000000017e-01 -1.44978924e+00   4.69841470e-01   8.95204200e-01
C     1.381518237953079e+01   8.252749313911213e+00  -6.626562000000007e-01  4.20883479e+00   1.93270428e+00   9.83314170e-01
C     1.448910267120645e+01   6.962026168220823e+00  -4.738608000000006e-01  2.46899090e-01   2.12966192e+00  -4.44699580e-01
C     8.255712451174142e+00   9.062079211450191e+00  -3.101079000000020e-01  2.02771591e+00  -2.94816434e+00  -1.36162090e-01
C     9.762984510506273e+00   8.827818183174154e+00  -3.776523000000012e-01 -3.44270811e+00  -1.43110185e+00   5.91528820e-01
C     1.033133869300187e+01   7.485658657975305e+00  -2.529012000000002e-01 -3.43651251e+00   7.79855360e-01  -1.36138449e+00
C     1.165860089274723e+01   7.328383496212810e+00  -4.616666999999985e-01  3.21374037e+00  -1.68476410e-01   1.14163130e+00
C     1.232112843279284e+01   6.057859922547261e+00  -2.217765000000007e-01 -5.03595070e+00  -1.09621247e+00  -6.26484960e-01
C     1.365756272620987e+01   5.872807895011771e+00  -1.867295999999996e-01  2.71910708e+00  -8.77454490e-01  -3.12000390e-01
C     5.958157730593965e+00   8.020807785595389e+00  -5.393228999999984e-01  3.36990471e+00   3.29452578e+00   1.08285868e+00
C     7.429482906013350e+00   7.893104550131923e+00  -3.273003000000010e-01 -6.83442810e-01  -5.88943350e-01  -7.52511060e-01
C     8.041570968634002e+00   6.575966257383898e+00  -2.497128000000011e-01  6.88983560e-01  -6.38739600e-02   4.58285430e-01
C     9.486090892627791e+00   6.336799449936581e+00  -2.423673000000015e-01 -1.30766421e+00   1.22619391e+00   8.40848980e-01
C     1.004839033717188e+01   5.021237267042373e+00  -1.199061000000015e-01 -3.27508973e+00   1.98435872e+00  -1.42061152e+00
C     1.139345583677239e+01   4.853725672832202e+00  -1.419515999999987e-01  3.02488968e+00   4.92317307e+00   1.21878307e+00
C     1.192558001288178e+01   3.653734085219631e+00   1.092003000000000e-01  3.67034632e+00  -1.57972986e+00  -2.86551370e-01
C     5.202461944640870e+00   6.885182949977789e+00  -4.544226000000009e-01 -2.86168996e+00  -1.83968118e+00   1.02701964e+00
C     5.748972449318917e+00   5.600146101197123e+00  -1.407090000000011e-01  1.09023593e+00  -1.11997490e+00  -1.28856703e+00
C     7.221380796523881e+00   5.419742844011548e+00  -1.343106000000027e-01 -2.74382314e+00   1.31507192e+00  -1.18340285e+00
C     7.740886144895164e+00   4.144876733171720e+00  -3.338718000000007e-01  6.66395880e-01  -1.59461612e+00   5.54407710e-01
C     9.162336368686780e+00   3.932635368356388e+00  -2.502893999999998e-01 -1.10280536e+00   6.19503330e-01   8.19069250e-01
C     9.709698604616120e+00   2.655318275490965e+00  -1.735454999999995e-01 -2.72215843e+00  -2.19296300e-01  -1.24420172e+00
C     1.108416887122544e+01   2.591196621698552e+00  -8.755230000000225e-02  6.57316610e-01  -4.87496175e+00  -6.87112100e-02
C     3.510041111073146e+00   4.551242294982203e+00  -2.693190000000101e-02 -1.35405952e+00   1.53103564e+00   3.45391630e-01
C     4.893919317209644e+00   4.400698307774285e+00  -1.645737000000018e-01  1.47163982e+00   1.86998520e+00   3.68419710e-01
C     5.488092818752654e+00   3.135829486488975e+00  -3.205968000000006e-01 -1.75531894e+00  -2.41060100e-01   5.69254720e-01
C     6.870279327817626e+00   3.009118554454550e+00  -4.585536000000019e-01 -2.08508810e-01   3.55540700e-02   5.21114190e-01
C     7.344303871306805e+00   1.680697369734937e+00  -4.989863999999997e-01  3.05736479e+00   1.90696343e+00   1.01485185e+00
C     8.767623025763870e+00   1.566830644304123e+00  -3.876770999999977e-01  1.16612007e+00  -3.23333642e+00  -5.91323460e-01
C     9.255478773624679e+00   1.885642643067924e-01  -5.435420999999998e-01  3.27252284e+00   6.77339120e-01   7.06133000e-03
C     2.646525947859898e+00   3.481479831484761e+00   1.768965000000000e-01 -4.12065070e-01  -1.96726925e+00  -1.61464747e+00
C     3.246219048273169e+00   2.162301100853013e+00  -6.227939999999776e-02 -3.53242454e+00  -3.84928500e-02   5.99026370e-01
C     4.587764427602545e+00   1.996704045563747e+00  -2.636886000000018e-01  2.49093547e+00  -1.04229450e+00  -1.03376745e+00
C     5.162501060969603e+00   6.365810739686477e-01  -4.928738999999993e-01  4.79412830e-01   3.05110261e+00   1.94638402e+00
C     6.573850474163779e+00   5.524139417821595e-01  -3.780006000000000e-01 -9.20730970e-01  -2.96512214e+00  -2.59046674e+00
C     8.768977769485571e-01   1.265776075451961e+00  -2.992071000000003e-01  1.04049916e+00  -1.90127986e+00   6.57584130e-01
C     2.322593330750095e+00   1.001547930267071e+00  -1.906265999999981e-01 -3.02209490e-01   3.15795809e+00  -2.45535620e-01
C     1.601691615242505e+01   9.199871857660481e+00   3.434601000000000e+00 -6.79227270e-01   3.71451598e+00  -5.28918780e-01
C     1.180640280422074e+01   8.873683649892541e+00   3.655931400000000e+00 -3.94537720e+00  -1.38639452e+00   1.40885582e+00
C     1.317074701022075e+01   8.930952696649610e+00   3.630701100000000e+00  2.73822702e+00   3.55762090e-01  -7.67472230e-01
C     1.403424858140633e+01   7.780974541805350e+00   3.642448800000000e+00 -1.07355232e+00  -3.91883220e-01   3.36460590e-01
C     7.583726686471344e+00   8.259003319299987e+00   3.604931700000000e+00 -6.71688590e-01   3.37758791e+00  -1.03772771e+00
C     8.994647064357533e+00   8.509023212873172e+00   3.682497300000000e+00 -2.55659728e+00  -3.33870179e+00  -1.54022250e-01
C     9.759628783929415e+00   7.328438489773065e+00   3.731937300000000e+00  1.53748283e+00   1.28751535e+00   1.05135124e+00
C     1.113628844146115e+01   7.593538157268195e+00   3.798302100000000e+00  4.20789218e+00  -3.45067175e+00  -2.31917380e+00
C     1.210622042436059e+01   6.310081605668269e+00   3.593982000000000e+00 -2.53427030e+00   2.20363733e+00   9.46983370e-01
C     1.349453366077260e+01   6.431829531730135e+00   3.680722500000000e+00  8.89194500e-01   1.89811853e+00   3.37073080e-01
C     4.687958892237192e+00   7.959060532271738e+00   3.628044600000000e+00  4.15912100e-01  -1.14698463e+00   3.84507000e-03
C     5.549388458193821e+00   6.848620793165213e+00   3.789883800000000e+00  1.27087447e+00  -8.91374390e-01   9.10826760e-01
C     7.024312512431981e+00   7.018716247242003e+00   3.768247200000000e+00 -2.67024734e+00  -2.22789436e+00   6.16151600e-01
C     7.795902804790087e+00   5.836889376873116e+00   3.954419100000000e+00  1.45501210e+00  -7.01862900e-02  -3.12691060e-01
C     9.236643607859129e+00   6.031366239846893e+00   3.892945800000000e+00 -4.44095880e-01  -1.32692323e+00  -1.31878683e+00
C     1.011434497986615e+01   4.911395307198236e+00   3.675123300000000e+00 -3.59899920e-01  -1.65363622e+00   1.64205528e+00
C     1.154664878694936e+01   5.013012054241670e+00   3.548892600000000e+00 -5.68900540e-01   1.45328116e+00   1.52718874e+00
C     1.242385396936152e+01   3.901533578903114e+00   3.752145000000000e+00 -2.84739427e+00  -5.53093940e-01  -1.73984265e+00
C     3.631056574321384e+00   5.317876718386923e+00   3.851313300000000e+00 -9.18869650e-01   4.83131220e-01  -1.77461040e-01
C     5.015142528959759e+00   5.516639263940537e+00   4.063484099999999e+00 -1.81504970e-01   1.90945360e+00  -3.10871063e+00
C     5.853161250936890e+00   4.431669824834400e+00   3.766581300000000e+00 -4.02468310e-01  -2.27669902e+00   2.51826901e+00
C     7.210413534455463e+00   4.509647529518438e+00   3.934541400000001e+00  3.80685186e+00   2.29159363e+00  -1.08463673e+00
C     8.144971969881787e+00   3.426484224091755e+00   3.772383900000000e+00 -1.37892161e+00  -1.45977478e+00  -8.92315700e-02
C     9.544769448924296e+00   3.564027863927690e+00   3.823113600000000e+00  8.33514560e-01   1.21368428e+00  -2.50725196e+00
C     1.039687037113569e+01   2.433428844186493e+00   3.467942100000000e+00 -1.96768068e+00   2.48957050e-01   1.95738221e+00
C     1.176592305966736e+01   2.651335755380353e+00   3.624976200000000e+00  3.06425966e+00  -3.90740025e+00  -1.81396714e+00
C     3.058312811571628e+00   4.021766343980819e+00   3.750986700000000e+00  1.73942527e+00  -5.34230130e-01   1.49685968e+00
C     3.900147884810151e+00   2.866986441776392e+00   3.878721300000000e+00  7.22140890e-01  -1.95117940e-01  -9.94759690e-01
C     5.391131268935029e+00   3.096600188529866e+00   3.821035800000000e+00 -4.37135918e+00  -7.47740790e-01  -1.03998621e+00
C     6.172802386774802e+00   1.941871557817318e+00   3.591684000000000e+00  8.89100180e-01   2.40480700e+00   1.21004707e+00
C     7.603236188723980e+00   2.107284184618553e+00   3.523476000000000e+00 -7.11648110e-01  -1.98738880e-01   1.11291198e+00
C     8.414649349262969e+00   9.275903385842418e-01   3.529263300000000e+00 -1.54609735e+00   7.80167620e-01  -2.66175980e-01
C     9.769356270415262e+00   1.111339642188131e+00   3.433994100000000e+00  3.82624712e+00  -1.06237117e+00  -1.18308020e-01
C     1.922970042434889e+00   1.385853444174969e+00   3.391858200000000e+00 -2.32944643e+00   2.24799199e+00   2.15626079e+00
C     3.293041542083605e+00   1.517581631328532e+00   3.745436700000000e+00 -3.81451000e-01   3.76021257e+00  -1.07890805e+00
C     4.145923441789637e+00   4.512633838028212e-01   3.711613500000000e+00  2.51574364e+00   1.39029574e+00   4.86872460e-01
C     5.558779313670421e+00   7.265556563904989e-01   3.759742800000000e+00  6.92320880e-01  -3.34287680e+00  -1.44510365e+00
C     1.294405272603736e+00   9.641357460891260e-02   3.331819200000000e+00  1.95554794e+00  -8.15842750e-01   1.43042151e+00
