76
Lattice="10.7446858958278 0 0 5.37234294791388 9.3051709414712 0 0 0 30 " PBC="1 1 1" Properties=species:S:1:pos:R:3:force:R:3 Energy="-608.01428598"
C     3.297768129411015e-01   1.216549674041754e-01  -5.974383000000003e-01 -4.03485950e-01  -1.99577930e-01   5.07858540e-01
C     1.275201940175820e+01   8.704156090398220e+00  -2.075442000000010e-01  1.49841052e+00  -4.02970963e+00  -3.15868460e-01
C     1.419076470176189e+01   8.515953518085865e+00  -3.601868999999986e-01 -1.96337971e+00   5.01647930e-01   1.01195043e+00
C     1.471196416475902e+01   7.244540370078454e+00  -1.218287999999994e-01 -6.22473720e-01  -2.94582851e+00  -1.02925376e+00
C     8.483982067480763e+00   9.077745304193066e+00  -3.975498000000002e-01  2.78195294e+00  -1.09441701e+00   2.00159901e+00
C     9.948680619041614e+00   8.974023820534716e+00  -1.794608999999987e-01 -2.24937433e+00  -2.65639760e-01  -6.18415280e-01
C     1.050323395090325e+01   7.679768338903791e+00  -1.154283000000014e-01 -1.49852808e+00  -1.15962613e+00  -7.81427000e-02
C     1.187568674156455e+01   7.554054548987296e+00  -1.333448999999973e-01  2.38211100e+00  -1.01000079e+00   1.24769400e-01
C     1.245445644650760e+01   6.225004986074105e+00  -1.390599000000030e-01 -9.71234000e-02   2.66744500e-02  -4.67679680e-01
C     1.386400521151523e+01   6.028650339604636e+00  -1.692947999999994e-01  9.52164070e-01   5.10115100e-01   1.03474396e+00
C     6.259984553273686e+00   8.071021093435492e+00  -3.219591000000008e-01  5.13773480e-01   1.06453679e+00   5.35267940e-01
C     7.743156228408687e+00   7.868300965629388e+00  -1.535069999999976e-01 -3.68611694e+00   2.21881884e+00  -1.27261350e+00
C     8.238963043835499e+00   6.572823808105750e+00   8.140409999999999e-02  4.39064500e-02   8.58726630e-01  -1.54706313e+00
C     9.659801894999406e+00   6.476141686263509e+00  -1.148415000000007e-01 -6.43947760e-01   4.05492250e-01   1.52788844e+00
C     1.020068889969454e+01   5.173477028602397e+00  -1.497305999999980e-01  3.52019370e-01   1.72128398e+00  -1.29706279e+00
C     1.159783904930158e+01   5.090762340547934e+00  -2.391441000000007e-01  1.15316455e+00  -1.41968039e+00   1.43784250e-01
C     1.220128097062536e+01   3.785486279714220e+00  -3.744446999999980e-01 -1.54341194e+00  -3.73871670e-01  -2.47908380e-01
C     5.336778254564718e+00   7.004306817834576e+00  -8.300609999999864e-02  2.39057386e+00  -1.61671008e+00  -1.99585620e-01
C     5.885794742335222e+00   5.574363333556572e+00   3.066420000000000e-02  2.71385732e+00   5.52450149e+00   3.15686490e-01
C     7.324074582545729e+00   5.437151981374904e+00   6.445500000000000e-02  5.17140170e-01   2.32824840e+00   2.90062750e-01
C     7.941598757827196e+00   4.206901931951350e+00  -5.665799999999876e-02  4.57975770e-01  -1.02840426e+00  -1.48125751e+00
C     9.359230212803094e+00   4.065109271909083e+00  -3.788882999999998e-01 -6.70949130e-01   1.75566743e+00   2.06308153e+00
C     9.969912494444019e+00   2.863576841040557e+00  -5.784158999999995e-01 -1.72004769e+00  -4.25824673e+00   5.46714380e-01
C     1.138073450473079e+01   2.609917602061029e+00  -5.817698999999976e-01 -4.49282770e-01   1.10644318e+00  -1.72411380e-01
C     3.728294208843211e+00   4.684293677443435e+00  -1.192970999999972e-01 -3.38870533e+00   1.87142956e+00  -1.52051690e-01
C     5.090658599019285e+00   4.503398176715134e+00  -1.093440000000001e-02 -8.08211520e-01  -1.82114965e+00  -9.14650470e-01
C     5.641909014435258e+00   3.210106896897012e+00  -1.919708999999976e-01  1.77284562e+00   1.42673896e+00   1.69007058e+00
C     7.082984890534092e+00   3.113807682838952e+00  -1.725107999999977e-01 -9.86678980e-01  -2.20374323e+00  -7.94474810e-01
C     7.651870344024017e+00   1.809203548398816e+00  -3.743793000000011e-01 -1.04673343e+00   2.78637360e-01   1.46200708e+00
C     9.014693263670875e+00   1.713338234461688e+00  -4.622372999999982e-01  4.24351668e+00  -1.95290937e+00  -1.48482956e+00
C     9.624891174871427e+00   3.360017201963916e-01  -5.261862000000015e-01  1.08644379e+00   1.42069190e+00   1.88794270e-01
C     2.821233949636174e+00   3.590750919091729e+00  -2.542401000000005e-01  1.38744702e+00  -4.99782150e-01   1.98885380e-01
C     3.337124678223836e+00   2.262856313995610e+00  -2.355725999999976e-01  2.81811426e+00  -6.33347750e-01  -3.93708140e-01
C     4.805507528856365e+00   2.124524526181057e+00  -1.380935999999977e-01 -1.31586516e+00  -2.56617143e+00  -9.12122950e-01
C     5.400093948678514e+00   7.925961294824482e-01  -1.734131999999988e-01  4.51185640e-01   1.07098687e+00   3.50648720e-01
C     6.850367813142041e+00   6.127024234575478e-01  -1.867277999999999e-01 -2.55036363e+00   4.54928617e+00  -9.10921940e-01
C     1.180297943984614e+00   1.290741290773724e+00  -6.867881999999987e-01 -3.15963180e-01  -9.76417200e-01   1.28305293e+00
C     2.582353042705001e+00   1.073187976075584e+00  -4.556085000000003e-01 -1.49385496e+00   1.40368702e+00  -3.48241890e-01
C     1.585766679887025e+01   9.190816251405092e+00   3.505373400000000e+00 -1.98870200e-02   9.85676400e-02  -5.90920840e-01
C     1.159739421930532e+01   8.664411565124164e+00   3.416549100000000e+00 -2.68933476e+00  -1.45405650e-01  -7.03641960e-01
C     1.294702610296646e+01   8.841255501373480e+00   3.328843800000000e+00  3.74634393e+00   9.62320760e-01   5.18710500e-02
C     1.386074849721894e+01   7.773172062920451e+00   3.404874300000000e+00 -9.50263760e-01  -3.90507440e+00   5.98697950e-01
C     7.292157493079777e+00   8.158276891012095e+00   3.508641300000000e+00  3.53201791e+00   8.44623720e-01   6.36816070e-01
C     8.769850667768086e+00   8.329373395378608e+00   3.617499300000000e+00 -1.67932638e+00  -8.21331020e-01  -9.82842230e-01
C     9.645807371402093e+00   7.181847711387298e+00   3.630752400000000e+00 -2.31470810e+00   1.58359007e+00  -1.31218730e-01
C     1.101098928683829e+01   7.360332521480172e+00   3.549540300000000e+00  1.85810760e+00  -9.15077850e-01   8.76060800e-01
C     1.185120051569675e+01   6.181914321330025e+00   3.773933700000000e+00 -2.73777120e-01   1.38849955e+00  -7.86275190e-01
C     1.324040137061096e+01   6.351501433918362e+00   3.636972000000000e+00  1.96395031e+00   2.24698746e+00   1.88181990e-01
C     4.558781765579313e+00   7.884143484413284e+00   3.424582500000000e+00 -2.75791921e+00   1.60621840e+00   5.07627550e-01
C     5.334406902386588e+00   6.763586512098827e+00   3.605173500000000e+00  1.53905316e+00  -2.02455145e+00  -1.37771273e+00
C     6.748468489195641e+00   6.873750058650649e+00   3.500973300000000e+00 -8.55259400e-02  -2.51562310e-01   4.81474860e-01
C     7.596565565376684e+00   5.726631475887961e+00   3.564048600000000e+00  8.16226490e-01   1.14237171e+00   5.85895790e-01
C     9.031880946747380e+00   5.921426389604469e+00   3.712700400000000e+00 -7.51532080e-01  -1.34358567e+00  -4.49986550e-01
C     9.843008083747709e+00   4.773101019222572e+00   3.865896600000000e+00  9.04349650e-01  -1.08359421e+00  -1.13809310e-01
C     1.129489015907332e+01   4.889186469612320e+00   3.962718000000000e+00 -2.83821740e-01  -8.00588000e-02  -1.36882800e-02
C     1.217578909588075e+01   3.741007190414182e+00   4.076854200000000e+00 -1.77304770e-01   4.04529680e-01  -7.92296270e-01
C     3.388458597026536e+00   5.262012287183249e+00   3.817389000000000e+00  5.88581390e-01  -1.11595012e+00  -1.74142920e-01
C     4.802040057546147e+00   5.458749190074934e+00   3.643672500000000e+00 -7.63689860e-01  -1.78556086e+00   1.01205935e+00
C     5.628325582520478e+00   4.244491100480574e+00   3.663732900000000e+00 -8.37773860e-01   2.18610696e+00  -5.72613490e-01
C     7.033452855556823e+00   4.437361797898398e+00   3.600971400000000e+00 -5.10309760e-01  -4.93987110e-01  -3.39544700e-02
C     7.857867838162823e+00   3.299625712046222e+00   3.604521600000000e+00  3.74524270e-01  -9.03247910e-01   2.07523240e-01
C     9.244956234105663e+00   3.464113684011149e+00   3.790921500000000e+00  1.15192430e+00  -9.10363100e-02   3.25191490e-01
C     1.009260692231099e+01   2.309580089681504e+00   3.875570999999999e+00  1.23486047e+00  -6.87742300e-02  -1.81471727e+00
C     1.153310446569126e+01   2.464677469237201e+00   3.886509000000000e+00  1.37310676e+00  -5.03507170e-01   2.06636089e+00
C     2.925153489425492e+00   3.889760397474697e+00   4.051896299999999e+00 -4.60110538e+00   2.41873545e+00  -8.62086720e-01
C     3.660319994987181e+00   2.748120606309772e+00   3.846387600000000e+00  8.56925410e-01   5.30096250e-01  -2.78357000e-03
C     5.021016595017858e+00   2.960329123871686e+00   3.626612100000000e+00  1.73709153e+00  -1.80162710e-01  -1.42816100e-02
C     5.855922850106907e+00   1.845694520653701e+00   3.431439600000000e+00  2.27478629e+00  -1.67128401e+00  -1.92718000e-01
C     7.313832533052128e+00   1.977220134235900e+00   3.467772000000000e+00 -5.51887900e-01   8.97265120e-01  -4.00691580e-01
C     8.189352841268308e+00   8.559079542479517e-01   3.354463800000000e+00 -1.08561399e+00  -3.92545860e-01   6.79178590e-01
C     9.599418640561439e+00   9.991790198491660e-01   3.539928000000000e+00 -3.78706760e-01   7.34713500e-01   4.64667560e-01
C     1.695791011747118e+00   1.298933377165882e+00   3.924396600000000e+00 -8.25103730e-01   9.74589500e-01  -2.15088828e+00
C     3.102109225768618e+00   1.468732275444814e+00   3.790975500000000e+00 -7.01609290e-01  -7.41834070e-01   2.25348180e-01
C     3.916513706862166e+00   3.236445462397810e-01   3.564692100000000e+00  1.87922378e+00   3.55718540e-01  -2.38317340e-01
C     5.365674636760172e+00   5.010398138672914e-01   3.339753000000000e+00 -1.82384320e+00   4.14750900e-01   1.58074720e+00
C     1.165112801742721e+00   3.746168768734600e-02   3.557406600000000e+00 -1.77371824e+00  -2.89966500e-01   1.28833742e+00
