52
Lattice="8.88768389401873 1.33226762955019e-15 0 4.44384194700937 7.69696003302603 0 0 0 30 " PBC="1 1 1" Properties=species:S:1:pos:R:3:force:R:3 Energy="-413.94967764"
C     1.283193890743495e+01   7.278742012229135e+00  -4.296557999999990e-01  4.65843596e+00  -2.37751258e+00  -5.03642830e-01
C     9.233216069205803e+00   6.922003924515498e+00  -4.421697000000009e-01 -1.15991362e+00   6.58767680e-01   8.37550690e-01
C     1.054891781842212e+01   6.489551533713152e+00  -3.388083000000002e-01 -4.37320450e-01   5.28355041e+00   2.61936990e-01
C     1.082519338215709e+01   5.199971061842029e+00  -2.781414000000026e-01  4.43282862e+00  -4.12371421e+00   2.01603570e-01
C     6.802867221879879e+00   6.458480907281650e+00  -5.430902999999994e-01 -1.12093030e-01  -3.11313866e+00   1.26357130e+00
C     8.231671192141683e+00   5.986639554434582e+00  -4.024446000000026e-01 -4.20559086e+00  -9.40867530e-01  -1.55146680e+00
C     8.469468150529879e+00   4.569466576146148e+00  -4.584930000000007e-01  2.31249139e+00   1.17541355e+00   2.17062323e+00
C     9.890044569659814e+00   4.154893299858290e+00  -1.954802999999998e-01 -2.71343717e+00   2.84682320e+00  -2.03468669e+00
C     1.020748215260845e+01   2.851914652693344e+00  -3.744861000000022e-01 -1.47972240e-01  -3.15632829e+00  -1.07103047e+00
C     4.325594691962247e+00   5.847872062658515e+00  -4.273230000000012e-01  8.55700160e-01   8.74158390e-01  -7.29841300e-02
C     5.688064855856667e+00   5.445434429310757e+00  -4.681955999999978e-01  2.45234455e+00   4.06854140e-01   8.18557180e-01
C     6.043516618082863e+00   4.042938630164330e+00  -2.644397999999981e-01  3.93288520e-01  -1.52512070e-01  -2.27167916e+00
C     7.444778989179552e+00   3.659478852375341e+00  -4.050894000000014e-01 -1.51523676e+00  -3.44540523e+00   1.97904100e-01
C     7.803055479454782e+00   2.128740538537070e+00  -4.608236999999988e-01 -4.71663240e-01   6.34255738e+00   1.12605044e+00
C     9.170560782998962e+00   1.873405973769067e+00  -4.871637000000000e-01  8.18706940e-01  -9.18522100e-01  -1.80811350e-01
C     3.391821604065536e+00   4.820081826841356e+00  -3.645773999999982e-01 -3.50028098e+00  -1.02084642e+00   2.40080680e-01
C     3.653331080820890e+00   3.395147234058671e+00  -4.444349999999986e-01  1.12205064e+00   9.36342120e-01  -3.83633420e-01
C     5.025034926145723e+00   3.002831718907165e+00  -3.966971999999984e-01  3.41513410e-01  -1.46262460e-01   9.69800220e-01
C     5.371174973073246e+00   1.584508968729450e+00  -3.227945999999982e-01  1.72953760e+00   3.16623416e+00  -2.61086140e-01
C     6.767114688084707e+00   1.266958567555752e+00  -2.742708000000000e-01 -2.15764924e+00  -2.17172535e+00  -6.82331670e-01
C     1.150208525463808e+01   7.581756858325379e+00  -3.090164999999985e-01  5.94450450e-01  -6.40481560e-01  -2.41424620e-01
C     2.640962960016617e+00   2.378830240801431e+00  -6.150851999999993e-01  2.28723950e+00   2.77371060e+00   1.38341161e+00
C     3.125636491203607e+00   1.063847799621699e+00  -6.964490999999988e-01 -3.90458496e+00  -1.31272780e+00   1.65560996e+00
C     4.414494857620356e+00   5.953083656578992e-01  -4.451156999999988e-01  6.60145750e-01   6.83980790e-01  -8.20828260e-01
C     6.773088369645768e-01   5.251019301970596e-01  -5.801699999999990e-01 -2.82515991e+00  -1.10979358e+00   1.22411986e+00
C     2.033997384733124e+00   1.199711305348046e-01  -5.288643000000022e-01  4.80104950e-01  -5.15724470e-01  -1.74396668e+00
C     3.999531076961571e-01   4.725130665488871e-01   3.710860800000000e+00  3.43121040e-01   3.21864890e-01   1.45870896e+00
C     7.203185569415550e+00   7.654591574727662e+00   3.793719300000000e+00  2.53191287e+00   2.11023230e-01   7.78193290e-01
C     4.165296021828088e+00   3.855788278548485e-01   3.862788900000000e+00  6.57230600e-02  -1.43217090e+00   2.56631800e-01
C     9.662111741523285e+00   7.066961619426091e+00   3.879744900000000e+00  3.88313190e-01   2.09352374e+00   6.66295920e-01
C     1.105513931853907e+01   7.531000563890749e+00   3.867864600000000e+00 -1.40229143e+00  -4.11926985e+00  -3.48247100e-02
C     1.200959853370987e+01   6.375455030951645e+00   3.863977500000000e+00 -1.32298023e+00   3.00719228e+00  -5.66960580e-01
C     4.450741369526886e+00   6.773198904133909e+00   3.820128600000000e+00  1.44849126e+00   1.52793097e+00  -6.00768110e-01
C     5.476797144391247e+00   5.836975091496043e+00   3.790871400000000e+00  1.90002194e+00  -8.84486310e-01  -8.05468640e-01
C     6.892817292941629e+00   6.294708301456123e+00   3.760692300000000e+00 -9.59018800e-01  -2.28597449e+00   1.44124900e+00
C     7.934733806249302e+00   5.305090907998949e+00   4.003571099999999e+00  8.67080500e-01   7.62785560e-01  -1.84721105e+00
C     9.350292150715152e+00   5.717248724290193e+00   4.039216200000000e+00 -1.44647579e+00  -3.50694954e+00  -1.38237007e+00
C     1.032744228942654e+01   4.551135650077900e+00   3.858529200000000e+00 -6.21357330e-01   5.69063805e+00   1.50464699e+00
C     1.164460672981002e+01   5.028394431272485e+00   3.778014600000000e+00  9.54722150e-01  -1.70827460e+00  -7.91358000e-02
C     3.771564117750938e+00   3.991970130541673e+00   3.676690500000000e+00  8.17165990e-01   3.93368913e+00   4.94904650e-01
C     5.149849515727302e+00   4.429215649263500e+00   3.681149400000000e+00 -1.00587770e-01   1.68718700e+00   2.86456010e-01
C     6.206390890684805e+00   3.524508347951674e+00   3.673167000000000e+00  1.68561417e+00  -6.17563300e-02   6.02062200e-01
C     7.634018532117301e+00   3.933129411109133e+00   3.781614900000000e+00 -1.73745786e+00  -1.26320378e+00   5.15393480e-01
C     8.616805773289871e+00   2.885712081154674e+00   3.802151700000000e+00  1.40129152e+00   8.77417070e-01   4.60116870e-01
C     1.000922356623780e+01   3.232495074704711e+00   3.969365100000000e+00 -2.04445909e+00  -8.33083790e-01  -1.73423184e+00
C     2.108487153393547e+00   2.232969769448918e+00   3.843476700000000e+00 -2.76262790e-01   2.11408114e+00   8.18265410e-01
C     3.436714627157808e+00   2.682325377203546e+00   3.786541500000000e+00  1.09761357e+00  -1.82519582e+00   3.31246990e-01
C     4.526247306902469e+00   1.770507239368004e+00   3.912991799999999e+00 -1.43166291e+00  -1.75695464e+00  -1.19163730e+00
C     5.855402610396835e+00   2.174308927972279e+00   3.804092400000000e+00  2.65825719e+00  -1.45690757e+00  -1.81635950e-01
C     6.948801965833942e+00   1.168992429989915e+00   3.804603600000000e+00 -5.25663320e-01   8.06713880e-01  -5.45485030e-01
C     8.355602919807644e+00   1.507295297826899e+00   3.688255500000000e+00 -3.45974578e+00   3.41239730e-01   6.41159240e-01
C     1.752355614898734e+00   9.164532471656073e-01   3.899200200000000e+00 -7.91481670e-01  -2.27803902e+00  -1.79370825e+00
