64
Lattice="9.86 0 0 4.93 8.53901048131456 0 0 0 30 " PBC="1 1 1" Properties=species:S:1:pos:R:3:force:R:3 Energy="-509.29153732"
C     9.811792438700000e+00   4.783340195634000e-02  -3.507455999999998e-01  5.04121059e+00  -5.05735864e+00   1.48135850e-01
C     1.238659936400000e+00   6.922579211740192e-01  -4.165907999999980e-01 -3.65394570e-01  -1.86207706e+00   1.35723322e+00
C     1.211930758200000e+00   7.488128122643168e-01   3.769255500000000e+00 -3.38943660e-01   4.17854040e-01  -1.30187468e+00
C     2.442823282400000e+00   1.484555131967107e+00   3.749361600000000e+00  1.09459761e+00   1.25232930e-01  -3.75183130e-01
C     7.397614724099999e+00   8.407290009868349e+00  -3.796716000000018e-01  4.67552830e-01   7.31912513e+00   8.41219510e-01
C     3.781389225100000e+00   7.197580605951736e-01  -1.530666000000025e-01 -2.28740319e+00  -7.38490136e+00  -2.06717762e+00
C     3.753549810900000e+00   7.822340723325129e-01   3.558047100000000e+00 -7.31944475e+00  -2.60310932e+00   1.65921180e-01
C     4.878847996200000e+00   1.459738205809083e+00   3.566445300000000e+00  3.08779591e+00   2.32171285e+00   3.87136420e-01
C     9.909959239599999e+00   8.495390481984806e+00  -2.539970999999994e-01 -5.54099740e-01   3.13941580e-01   6.38343360e-01
C     6.192607411400000e+00   6.212703945704255e-01  -3.027101999999999e-01  8.94728730e-01   3.89710298e+00   5.65380580e-01
C     6.094969057200000e+00   8.071207622061584e-01   3.580306200000000e+00  4.36516106e+00  -3.26506476e+00  -6.33047970e-01
C     7.439438576300001e+00   1.427317205428514e+00   3.548621400000000e+00 -5.51850294e+00   3.24963542e+00  -9.37482700e-02
C     7.467364413399999e+00   9.188829177528000e-03  -1.570844999999998e-01 -2.31812412e+00  -4.27818610e-01  -7.13829000e-01
C     8.670922453999999e+00   7.284786958280832e-01  -2.434146000000013e-01 -2.62705613e+00  -2.45714027e+00  -4.41633390e-01
C     8.621755563999999e+00   8.004497456587633e-01   3.564207000000000e+00  4.37692310e-01  -4.63416785e+00  -7.96505430e-01
C     9.805523845100000e+00   1.454992992295242e+00   3.606468300000000e+00  3.93545837e+00   2.33268884e+00   1.56446363e+00
C     1.105315874790000e+01   2.074846935807245e+00  -1.512564000000012e-01  1.86660910e+00  -5.24437800e-02  -1.47284102e+00
C     2.495887189500000e+00   2.700207687177801e+00  -1.425995999999969e-01 -2.08057274e+00   4.10806627e+00   1.46476133e+00
C     2.446678542400000e+00   2.922987823507752e+00   3.799746900000000e+00  8.63951220e-01  -1.23382358e+00  -1.84563440e-01
C     3.766957833299999e+00   3.566774137082156e+00   3.706871100000000e+00 -6.99153995e+00   4.50573706e+00   8.34971330e-01
C     3.723724937800000e+00   2.031452282278619e+00  -1.598039999999976e-01 -1.56378730e-01   4.36409165e+00   1.39180960e-01
C     4.935958250100001e+00   2.810693260657683e+00  -1.980426000000008e-01  1.24432516e+00  -2.78490288e+00  -6.87664340e-01
C     4.861459984800000e+00   2.869066363249487e+00   3.671377800000000e+00  5.55001822e+00  -5.59766700e-02  -4.41659550e-01
C     6.142104885800000e+00   3.620509019961434e+00   3.654032400000000e+00  4.07543240e-01  -2.30334365e+00  -8.08541900e-01
C     6.168581697300000e+00   2.144277288459706e+00  -3.536156999999989e-01 -2.54052580e-01  -4.33466823e+00   1.13129191e+00
C     7.411196183900000e+00   2.777110698681519e+00  -2.675426999999999e-01 -1.48190491e+00  -4.27465210e-01  -1.14455458e+00
C     7.375957036900000e+00   2.870322537081199e+00   3.507569400000000e+00  6.73376370e-01   2.65262840e-01   1.27533123e+00
C     8.609079400099999e+00   3.599750770874659e+00   3.597142500000000e+00 -8.57719190e-01   1.30469510e+00  -3.75591940e-01
C     8.615585521100000e+00   2.057358188443158e+00  -3.569028000000003e-01 -3.04548500e-01   3.45996811e+00   1.04416421e+00
C     9.783533481499999e+00   2.769569727746422e+00  -2.218058999999997e-01  3.80175430e+00  -2.84277210e-01   1.23946380e-01
C     9.862881634299999e+00   2.902029761575745e+00   3.713972100000000e+00 -1.39218313e+00  -2.07250970e-01  -5.79148740e-01
C     1.106616177080000e+01   3.624686987009088e+00   3.827793900000000e+00  1.40139313e+00   8.37245070e-01  -6.88942030e-01
C     2.509009617000000e+00   4.248210655664976e+00   3.710370000000000e-02 -1.68344570e+00  -3.86324293e+00  -9.97964070e-01
C     3.721125841800000e+00   4.882775094091294e+00  -1.112639999999843e-02  1.92951245e+00   2.73908228e+00  -1.77633862e+00
C     3.694770111100000e+00   5.074980107936138e+00   3.729935400000000e+00 -1.84025330e-01  -2.47947603e+00  -2.49436210e-01
C     4.875728193600000e+00   5.760230831720165e+00   3.572891700000000e+00  2.80215243e+00  -1.73696593e+00   7.06172910e-01
C     5.021350089899999e+00   4.150058743532302e+00  -2.118441000000004e-01 -4.33369433e+00   4.23002960e+00   1.14092424e+00
C     6.189969220500000e+00   4.909293247307249e+00  -2.880995999999989e-01  4.30115130e-01  -1.28158497e+00   4.72777130e-01
C     6.198743092199999e+00   5.004411419796589e+00   3.613536900000000e+00 -4.01883744e+00   1.85215008e+00  -4.25498730e-01
C     7.348167366399999e+00   5.787056133143085e+00   3.506350800000000e+00  5.03111560e-01  -1.16043560e+00  -2.78393950e-01
C     7.374010771500000e+00   4.154631383644341e+00  -2.826200999999990e-01  2.69789161e+00   1.92263405e+00  -8.43318800e-02
C     8.645526101300000e+00   4.816428775853895e+00  -2.639052000000000e-01 -5.21969730e-01   4.92753223e+00   3.34706300e-02
C     8.522295722699999e+00   5.064570883380808e+00   3.542734500000000e+00  5.21526215e+00  -1.08201242e+00   4.62446240e-01
C     9.881337927400001e+00   5.791855740153683e+00   3.613900200000000e+00 -2.65663969e+00  -1.82470909e+00  -3.69959480e-01
C     9.867205786600000e+00   4.158313148793003e+00  -1.755002999999995e-01 -1.92469460e-01   1.12222548e+00   2.89441590e-01
C     1.108379874720000e+01   4.913119492513232e+00  -3.045960000000036e-02  1.09606575e+00   6.02609130e-01   1.34437110e-01
C     1.112639503180000e+01   5.075397409378296e+00   3.729956100000000e+00 -3.77005464e+00  -1.24890382e+00   6.47292630e-01
C     1.229734669330000e+01   5.788330922017644e+00   3.803637000000000e+00  2.61249590e+00  -3.87828460e+00  -5.25881900e-01
C     3.709866165500000e+00   6.383790278829965e+00  -2.371020000000001e-01 -5.55192780e-01  -1.65368602e+00   2.20965706e+00
C     4.938852653100000e+00   7.045764257776244e+00  -2.494580999999982e-01  6.56289370e-01   1.82122388e+00  -6.27197810e-01
C     4.916694521599999e+00   7.150535269272595e+00   3.549085800000000e+00  9.15490710e-01   1.47819100e+00   3.29622900e-02
C     6.156596423600000e+00   7.875549005428105e+00   3.635042700000000e+00 -8.00463020e-01   3.52098510e-01  -8.54685250e-01
C     6.209673641699999e+00   6.290730264036618e+00  -2.321105999999986e-01 -2.30368354e+00   3.05515406e+00  -1.27525230e+00
C     7.375122437199999e+00   7.082479355746995e+00  -3.944387999999996e-01  2.81948208e+00  -4.55517423e+00   9.57750690e-01
C     7.358490046900000e+00   7.194387613762950e+00   3.424710300000000e+00 -6.34041830e-01  -1.42262440e-01   1.06301584e+00
C     8.561105668700000e+00   7.874079868675020e+00   3.424557000000000e+00  2.16244058e+00   1.91605661e+00   5.71635890e-01
C     8.696051649999999e+00   6.387260276518722e+00  -2.985890999999974e-01 -3.53299319e+00  -3.41699030e+00   7.62870500e-02
C     9.873792365200000e+00   7.078071518537219e+00  -1.804397999999985e-01  3.69204500e-01  -2.10397500e-01  -2.44618500e-02
C     9.791521708399999e+00   7.193458142472201e+00   3.529188600000000e+00  2.68679924e+00  -3.05915900e-01  -1.17055630e-01
C     1.107961953690000e+01   7.891936988951215e+00   3.572856900000000e+00 -7.65184640e-01   1.61301540e-01   5.65252460e-01
C     1.106969342560000e+01   6.354862416856554e+00  -2.172269999999799e-02  2.15598031e+00   6.39099430e-01  -8.61042020e-01
C     1.234311262280000e+01   7.168604669349323e+00  -1.118637000000007e-01  7.22682900e-02  -4.44898194e+00   1.32290060e-01
C     1.235032817080000e+01   7.106145564852734e+00   3.698851200000000e+00 -1.09509273e+00   6.91642061e+00  -1.63070300e+00
C     1.359464316230000e+01   7.870010517840671e+00   3.492573000000000e+00 -2.34396068e+00   8.07163000e-02   1.72222776e+00
