64
Lattice="9.86 0 0 4.93 8.53901048131456 0 0 0 30 " PBC="1 1 1" Properties=species:S:1:pos:R:3:force:R:3 Energy="-514.91144407"
C     4.959277791000000e+00   8.496833574755927e+00  -8.138160000000028e-02 -1.71869183e+00   3.05515388e+00  -2.76299200e-02
C     1.239899584900000e+00   6.815690440254696e-01  -1.064100000000003e-01  6.93580730e-01   3.09315310e-01   2.37694980e-01
C     1.207608134200000e+00   7.300920564681744e-01   3.460398300000000e+00 -9.19828900e-02   3.64533570e-01  -3.50225860e-01
C     2.446171491899999e+00   1.422582665677774e+00   3.456830100000000e+00  4.84532160e-01   7.33182890e-01  -6.79378000e-02
C     7.417682782100000e+00   8.525011370048773e+00  -5.647169999999946e-02 -4.48788010e-01  -1.07956758e+00  -4.28669280e-01
C     3.699648346100000e+00   6.694187152332680e-01  -5.393399999999815e-02  1.16746697e+00   2.29558199e+00   3.72600710e-01
C     3.648257779600000e+00   6.710931297982912e-01   3.429183900000000e+00  2.37453496e+00   2.16165017e+00   1.33874000e-02
C     4.953825063099999e+00   1.412316896498508e+00   3.440141100000000e+00 -2.37335561e+00  -2.11529630e-01  -1.24860020e-01
C     9.893541994500000e+00   8.516456989349908e+00  -3.400079999999761e-02 -1.53778609e+00   1.09753887e+00  -3.52384500e-02
C     6.173524958999999e+00   7.671238663376287e-01  -4.979160000000249e-02 -6.57981750e-01  -4.67493572e+00   8.35199000e-03
C     6.191958771299999e+00   7.254856872647384e-01   3.443616300000000e+00 -2.13057301e+00  -1.23620032e+00  -5.87840160e-01
C     7.391412537599999e+00   1.395823883146493e+00   3.406551300000000e+00  1.72089156e+00   9.42137670e-01   1.55563990e-01
C     7.382009696500000e+00   2.695039792645200e-02  -4.637909999999934e-02  1.22455361e+00  -8.82554520e-01   4.06263470e-01
C     8.627242358199998e+00   7.163907018123855e-01  -4.285379999999961e-02  3.95559820e-01  -5.27056300e-01  -1.95436160e-01
C     8.625233038099999e+00   7.151490442984888e-01   3.425286600000000e+00  1.14240264e+00   2.04935420e-01   8.19046700e-02
C     9.852026316600000e+00   1.459735814886149e+00   3.487255500000000e+00 -4.94966560e-01   6.34813750e-01  -5.56297190e-01
C     1.227451039100000e+00   2.114570924900834e+00  -9.527699999999939e-02  4.39637000e-02  -1.83059130e-01   7.96726450e-01
C     2.428498674400000e+00   2.873263116120197e+00   1.635210000000000e-02  1.53517981e+00  -3.67970881e+00  -2.39948860e-01
C     2.497363675200000e+00   2.878139232664696e+00   3.463023600000000e+00 -2.67197224e+00  -1.29528814e+00   2.53981700e-01
C     3.671968959700000e+00   3.594103410903606e+00   3.516706500000000e+00  2.72957560e+00  -3.79650088e+00  -5.02652330e-01
C     3.683919279700000e+00   2.156385946880766e+00   1.735530000000000e-02 -4.07972630e-01  -1.71535311e+00  -5.24308880e-01
C     4.898283190100000e+00   2.850885358305784e+00   2.024700000000000e-03  7.20846100e-01   6.07738930e-01  -1.19667680e-01
C     4.928476383500000e+00   2.829677871877657e+00   3.414006900000000e+00 -1.63063090e-01  -3.41510430e-01   3.96116880e-01
C     6.191566293999999e+00   3.467669442160123e+00   3.353003100000000e+00 -1.69948806e+00   3.19991519e+00   4.35070030e-01
C     6.151149661000000e+00   2.105424363825183e+00  -9.010439999999775e-02 -1.53392309e+00   3.93532028e+00   3.74778260e-01
C     7.346025034899999e+00   2.828793913512767e+00  -1.143090000000022e-01  2.50330105e+00   1.02650633e+00   4.78222460e-01
C     7.416770929300000e+00   2.806339219213930e+00   3.383892900000000e+00  3.63175700e-02   9.05537220e-01   1.99568730e-01
C     8.606960387499999e+00   3.601161756966374e+00   3.452109600000000e+00  7.38271860e-01  -4.72427720e-01  -2.77538080e-01
C     8.600953527600000e+00   2.136790540241157e+00  -2.625570000000010e-02  7.68652860e-01  -4.40078500e-01  -7.74177070e-01
C     9.878056272900000e+00   2.815925453939198e+00  -3.196649999999934e-02 -1.73495282e+00   1.05890477e+00   4.08148200e-02
C     9.849649810099999e+00   2.927474134223839e+00   3.450610200000000e+00  3.89182140e-01  -2.25932246e+00   2.94559250e-01
C     1.110316166730000e+01   3.601835655673455e+00   3.444166500000000e+00 -1.72332290e-01  -6.72914630e-01   3.01325640e-01
C     2.482924543300000e+00   4.216367233953275e+00   9.620099999999999e-02 -5.71703040e-01   4.16106410e+00   7.22636900e-02
C     3.703945925700000e+00   4.995746458912008e+00   3.007980000000000e-02 -1.02074189e+00  -7.09313150e-01   6.68031240e-01
C     3.699163529900000e+00   4.933831630943415e+00   3.546257700000000e+00  3.24588300e-02   4.07619011e+00  -7.16579740e-01
C     4.926480867400000e+00   5.681234737967588e+00   3.458518800000000e+00  2.11475700e-01  -7.07568980e-01  -3.09445280e-01
C     4.907683714099999e+00   4.315088612694860e+00   3.354509999999999e-02  1.82271343e+00  -2.35222447e+00  -3.73612020e-01
C     6.172213036700000e+00   4.977520111822658e+00  -1.016159999999999e-02  3.37439630e-01   9.71152350e-01  -9.25567940e-01
C     6.121570992100000e+00   4.943242303613213e+00   3.372415800000000e+00  2.74395096e+00   5.35813000e-01   4.17637810e-01
C     7.388349627199999e+00   5.748513430759298e+00   3.406662000000000e+00 -9.36342090e-01  -2.80139319e+00  -2.64446450e-01
C     7.434377536900000e+00   4.264376624915607e+00  -1.164443999999989e-01 -1.97142673e+00  -4.64755500e-02   3.81025890e-01
C     8.669966477699999e+00   4.991666348924456e+00  -1.026728999999982e-01 -1.08642351e+00  -3.07478837e+00   6.14965980e-01
C     8.648934555399999e+00   5.025850825749353e+00   3.452784900000000e+00 -3.08279583e+00  -6.72697300e-01  -3.96958730e-01
C     9.841404582299999e+00   5.706144312389321e+00   3.413745900000000e+00  1.54485505e+00   5.52717880e-01  -1.11271720e-01
C     9.875064058700000e+00   4.258159712945538e+00   3.461910000000000e-02  1.09287431e+00  -3.42510720e-01  -2.58932830e-01
C     1.112073544110000e+01   4.954988737209711e+00   1.559733000000000e-01 -9.22287860e-01   9.82494150e-01  -7.97858430e-01
C     1.107679711190000e+01   5.008746760807390e+00   3.443649600000000e+00  1.57724542e+00   1.12734300e-02  -2.66082900e-02
C     1.235746952230000e+01   5.662397253898185e+00   3.457326000000000e+00 -1.62740305e+00   2.51298080e+00  -5.29697800e-02
C     1.355097006710000e+01   6.398362100214084e+00   2.510700000000000e-02  8.91090900e-02   1.01923765e+00  -2.86854770e-01
C     4.921953944200000e+00   7.132682589281850e+00  -8.749650000000031e-02  2.42484730e-01  -2.30828416e+00   4.46441470e-01
C     4.963348196200000e+00   7.109524451299670e+00   3.389826900000000e+00 -1.80600880e+00  -2.95732950e-01   3.24441920e-01
C     6.135822438900000e+00   7.843969951480863e+00   3.376458300000000e+00  1.19779075e+00   3.50135300e-01   3.22776840e-01
C     6.155467108500000e+00   6.426875734789109e+00  -9.566490000000272e-02  8.84164760e-01  -1.53483979e+00   4.28308900e-01
C     7.431195123300000e+00   7.080082370115155e+00  -7.792530000000042e-02 -2.30909270e+00   1.19013141e+00  -1.76760750e-01
C     7.370265647700000e+00   7.140431143561716e+00   3.377697900000000e+00 -1.30307540e-01  -1.21421930e-01   2.89443200e-02
C     8.604012740500000e+00   7.821001037970920e+00   3.376262100000000e+00  3.39653350e-01  -2.71063800e-01   5.84667300e-02
C     8.610072745800000e+00   6.349052132565542e+00  -6.201209999999691e-02  1.89844436e+00   2.86378236e+00   1.46488790e-01
C     9.844845377199999e+00   7.102909792221443e+00   2.489100000000000e-03  7.00218670e-01  -2.58668170e-01   1.46128290e-01
C     9.841415379000001e+00   7.108254188100666e+00   3.343527300000000e+00  5.50488100e-01   1.34392962e+00   6.10162420e-01
C     1.108336668200000e+01   7.843658704548868e+00   3.387152400000000e+00  7.82896630e-01  -9.05057040e-01  -8.29379300e-02
C     1.108059247240000e+01   6.421323755565118e+00   1.117275000000000e-01  9.68522090e-01  -1.67045283e+00  -2.51380630e-01
C     1.233345495000000e+01   7.117155423405228e+00   5.492520000000000e-02 -1.18603103e+00   8.88511710e-01  -2.18444160e-01
C     1.235430998390000e+01   7.155904001331685e+00   3.376977000000000e+00 -7.61858700e-01  -2.26662376e+00   4.88191470e-01
C     1.359225043610000e+01   7.839136017648135e+00   3.395068800000000e+00 -4.98555310e-01  -1.51501580e-01   9.67070800e-02
