64
Lattice="9.86 0 0 4.93 8.53901048131456 0 0 0 30 " PBC="1 1 1" Properties=species:S:1:pos:R:3:force:R:3 Energy="-514.67018323"
C     5.008209569300000e+00   8.085487665457602e+00   1.683534000000000e-01 -1.49459095e+00  -1.43940274e+00  -3.54007700e-01
C     1.301433182700000e+00   2.065831704712776e-01   2.167959000000000e-01 -3.12785450e-01   2.37834170e+00  -6.66925250e-01
C     9.796077521399999e+00   5.378644142455584e-01   3.320180400000000e+00  1.06902780e+00  -2.06481801e+00   1.14488480e-01
C     1.205596990000000e+00   1.154592738361462e+00   3.268402500000000e+00 -1.88880840e-01   1.80140310e+00   5.70700970e-01
C     7.462347497500000e+00   8.044328951823164e+00   1.823466000000000e-01 -4.67192480e-01   1.77206802e+00  -3.58590980e-01
C     3.747688780400000e+00   2.453220139257888e-01   4.065960000000000e-02 -6.42272480e-01  -7.14467870e-01   1.49326383e+00
C     2.438243657500000e+00   4.500587087708712e-01   3.411008400000000e+00 -6.57608220e-01   9.32851340e-01  -6.15588710e-01
C     3.652144936699999e+00   1.172941620251201e+00   3.350687100000000e+00  4.38065320e-01   6.62306600e-02   5.89950330e-01
C     9.866407816799999e+00   8.054106545773289e+00   1.633023000000000e-01  1.72178051e+00  -9.77530110e-01  -1.02911820e+00
C     6.187742290199999e+00   1.964341295652736e-01   1.982097000000000e-01 -2.36172560e-01   2.08252605e+00  -1.21675855e+00
C     4.884144985400000e+00   4.782018356811696e-01   3.391270200000000e+00  8.61388760e-01  -7.68444940e-01  -3.99616550e-01
C     6.125525147899999e+00   1.177927719250682e+00   3.305121600000000e+00  9.89851900e-02  -3.62390800e-02   1.11902872e+00
C     1.236310658290000e+01   8.072868544990049e+00   5.196210000000000e-02 -1.08998090e-01   9.56262700e-02   9.94613630e-01
C     8.681073915599999e+00   2.686034552192992e-01   1.194042000000000e-01 -1.97010810e-01  -1.91039905e+00   1.82058060e-01
C     7.392632712599999e+00   4.416048322253568e-01   3.300472800000000e+00 -2.56728955e+00   9.03338750e-01   4.80694000e-03
C     8.552332142099999e+00   1.206705380029750e+00   3.290247000000000e+00  1.66416316e+00  -2.03301280e-01  -2.44709180e-01
C     1.261305004000000e+00   1.683991748397358e+00   1.172613000000000e-01  2.27239230e-01  -1.24199287e+00  -6.89719120e-01
C     2.493564715800000e+00   2.376955845738074e+00  -7.014000000005183e-04 -2.42015760e-01   5.04805700e-01  -2.22042590e-01
C     1.106632953870000e+01   2.593765676720618e+00   3.175313400000000e+00  4.87169300e-02  -1.20751960e-01   1.33616600e-02
C     2.439190858400000e+00   3.319383035526958e+00   3.123408900000000e+00 -2.58936110e-01  -1.58055060e-01   5.13555900e-01
C     3.733565562900000e+00   1.657652914401484e+00   3.799230000000000e-02 -1.66601889e+00   3.06853130e-01  -5.17706410e-01
C     4.901312034200000e+00   2.392498040273141e+00   1.310190000000000e-02  3.17650797e+00  -7.17097620e-01   4.39339500e-01
C     3.673824759600000e+00   2.583702367479834e+00   3.321350700000000e+00 -8.89090460e-01   1.21965122e+00  -3.93809790e-01
C     4.891426447500000e+00   3.304417651149815e+00   3.435812700000000e+00 -1.83624710e-01   8.11916730e-01  -8.56745970e-01
C     6.161350028199999e+00   1.656762039438106e+00   1.397301000000000e-01  7.97689200e-02  -1.67608580e-01   1.88476780e-01
C     7.405098414799999e+00   2.360685615169482e+00   1.939185000000000e-01 -4.58175820e-01   1.00742491e+00  -3.23916860e-01
C     6.099107102000000e+00   2.613752853161050e+00   3.432912000000000e+00  2.28417775e+00  -1.31573143e+00  -8.39565370e-01
C     7.380145170500000e+00   3.302319103934250e+00   3.332118000000000e+00 -2.54804679e+00   1.16171184e+00   6.99800200e-02
C     8.633635976600001e+00   1.655516880929912e+00   1.864695000000000e-01  1.09137568e+00   1.68927405e+00  -8.99550030e-01
C     9.886769259099999e+00   2.407425340663543e+00   2.378610000000000e-02  1.42104840e-01  -2.08896725e+00   1.30060301e+00
C     8.583148290300000e+00   2.618848507664989e+00   3.225499500000000e+00  8.34678300e-02  -3.48577940e-01   7.83885630e-01
C     9.819938474899999e+00   3.308096256864599e+00   3.219888900000000e+00  9.91223370e-01  -4.62488400e-02  -3.08432470e-01
C     2.486547304500000e+00   3.819684769621521e+00  -1.460487000000015e-01  1.30908359e+00  -1.49985702e+00   1.97793350e-01
C     3.741600969899999e+00   4.514671758544949e+00  -9.516059999999982e-02 -5.40986140e-01   6.82914690e-01   2.56339990e-01
C     1.227019062640000e+01   4.751221561614527e+00   3.044550000000000e+00  1.41404171e+00  -2.39609020e-01   1.22116842e+00
C     3.707738278900000e+00   5.430013548651692e+00   3.255070200000000e+00 -2.58270242e+00   9.34650420e-01  -3.81608220e-01
C     4.956969121299999e+00   3.798248266932319e+00  -1.986750000000015e-02  1.10088480e+00   1.18275392e+00   8.96103690e-01
C     6.237888919100000e+00   4.546281809100231e+00   2.019780000000000e-01 -2.40732309e+00  -2.01229179e+00  -1.33972946e+00
C     4.914249685300000e+00   4.748538689911816e+00   3.348938400000000e+00 -6.94054370e-01  -1.14231191e+00   7.24760050e-01
C     6.100426074200000e+00   5.483892740808082e+00   3.469104000000000e+00  1.52566168e+00  -1.46278012e+00  -6.34183220e-01
C     7.442449968200000e+00   3.834958924617621e+00   1.996953000000000e-01  1.31954300e-02  -2.26797264e+00   3.28902300e-02
C     8.669172156099998e+00   4.502421694110340e+00   1.439715000000000e-01  1.10780513e+00   8.10413140e-01  -3.17689710e-01
C     7.334099611399999e+00   4.730612659821048e+00   3.334131300000000e+00  4.24052930e-01   3.39237810e-01   1.44037660e+00
C     8.572677019599999e+00   5.419893881941739e+00   3.403070100000000e+00  7.32995990e-01   5.65886830e-01  -6.24316420e-01
C     9.937229337400000e+00   3.798453630134363e+00   6.964500000000000e-03 -2.29534611e+00   8.06692680e-01  -3.25700380e-01
C     1.113293837430000e+01   4.510360241373387e+00  -1.679721000000001e-01  3.19140560e-01   1.07581590e-01   3.13980960e-01
C     9.846683675600000e+00   4.728072645763667e+00   3.270365100000000e+00 -2.04573653e+00  -3.51272800e-02  -3.99868350e-01
C     1.102112543200000e+01   5.460747411341623e+00   3.102261300000000e+00  1.78761852e+00   3.11540340e-01   1.20622382e+00
C     3.729020004300000e+00   5.945489702099947e+00   4.056000000000000e-02 -4.84243330e-01  -2.92377510e-01  -9.19532550e-01
C     4.977014747799999e+00   6.620498736714262e+00   1.049622000000000e-01 -9.48787270e-01   1.89755705e+00   2.82498110e-01
C     1.353772414310000e+01   6.855391630190304e+00   3.353509200000000e+00  5.93003060e-01   9.79118290e-01  -6.95653730e-01
C     4.917055496200000e+00   7.646240710196087e+00   3.378142200000000e+00 -1.51809849e+00  -1.69338235e+00   7.01785500e-01
C     6.194649762500000e+00   5.932185411431480e+00   1.561725000000000e-01  9.81357360e-01   9.06471810e-01   6.23089600e-01
C     7.431217850600000e+00   6.667338966361674e+00   2.260017000000000e-01  5.56657530e-01  -1.90778639e+00  -3.99853370e-01
C     6.130040682800000e+00   6.881461656136267e+00   3.507095400000000e+00 -2.01936970e-01   1.81662838e+00  -5.96364680e-01
C     7.372909705300000e+00   7.600455646073690e+00   3.490935600000000e+00  3.47810000e-02  -1.90591808e+00  -6.87620400e-02
C     8.669066900599999e+00   5.940687447996100e+00   1.612299000000000e-01 -4.02001260e-01  -1.07308855e+00  -3.83403200e-01
C     9.897520652400001e+00   6.608032806094720e+00   4.037970000000000e-02 -1.73250600e-02   1.33017929e+00   7.01706800e-02
C     8.587490782200000e+00   6.845575098352390e+00   3.434742600000000e+00  8.41858560e-01   8.31959530e-01   1.40367650e-01
C     9.853674810000001e+00   7.578250034710555e+00   3.373547400000000e+00 -2.43843134e+00   5.52417560e-01   4.02987200e-01
C     1.114476707120000e+01   5.922590210745208e+00  -1.606757999999999e-01 -1.93332481e+00   5.52516610e-01   1.22031557e+00
C     1.231132994810000e+01   6.656846486454164e+00  -8.840400000000415e-03  3.19664740e+00  -3.13036910e-01  -4.64580020e-01
C     1.105077745930000e+01   6.893857823040188e+00   3.306470700000000e+00  5.22499210e-01  -1.58000376e+00  -9.81526280e-01
C     1.228933401360000e+01   7.560605535795312e+00   3.288431100000000e+00  1.16842231e+00   3.67776570e-01   3.91310940e-01
