64
Lattice="9.86 0 0 4.93 8.53901048131456 0 0 0 30 " PBC="1 1 1" Properties=species:S:1:pos:R:3:force:R:3 Energy="-511.88979877"
C     5.022863402700001e+00   8.352433186402106e+00   4.773300000000000e-02 -2.30849565e+00  -3.06071276e+00   2.61717100e-02
C     1.273861171700000e+00   4.344179740548648e-01   1.835784000000000e-01  3.61399563e+00   1.78638567e+00  -2.03651880e+00
C     1.145064625900000e+00   9.141484633921639e-01   3.432378300000000e+00 -1.09819310e+00   3.25491893e+00  -1.61079830e-01
C     2.352899342900000e+00   1.638442873304838e+00   3.396625800000000e+00  1.65695888e+00   1.57864061e+00  -5.28388730e-01
C     7.500381461500000e+00   8.264782293187420e+00   1.115760000000000e-02 -3.51871870e-01   9.92601690e-01   1.30664368e+00
C     3.837795425700000e+00   4.533359809930952e-01  -4.321290000000033e-02 -1.73916548e+00   1.02885343e+00  -9.33452250e-01
C     3.608054862099999e+00   9.072460396607608e-01   3.539335800000000e+00 -1.10370796e+00   4.10526606e+00  -5.83918720e-01
C     4.821799071500000e+00   1.694475518514178e+00   3.432653100000000e+00 -9.96409270e-01   3.57454550e-01   5.65606590e-01
C     9.976064968699999e+00   8.325469382229199e+00  -6.741690000000133e-02  3.24129520e-01  -2.70090516e+00   4.42082900e-01
C     6.299399050100000e+00   4.650848055125272e-01   4.395360000000000e-02 -2.89166665e+00   9.01274910e-01  -6.02793030e-01
C     6.007854527500000e+00   9.906147898999351e-01   3.576003300000000e+00  4.00504749e+00  -8.37912770e-01   4.01725980e-01
C     7.336669768299999e+00   1.613563441590100e+00   3.587572500000000e+00 -1.05219698e+00   2.14718156e+00  -7.98433170e-01
C     1.241071717050000e+01   8.267487110147064e+00  -2.583090000000254e-02  1.28165722e+00   2.28375806e+00   5.12025490e-01
C     8.683661031700000e+00   5.171722570998984e-01   1.073874000000000e-01  7.54639010e-01  -4.48951284e+00  -1.04513350e+00
C     8.581790617599999e+00   9.363621014251504e-01   3.413128800000000e+00 -1.66370398e+00  -7.15607570e-01   1.42496669e+00
C     9.757140677199999e+00   1.677935369824314e+00   3.353108400000000e+00  1.01806680e+00   1.51196784e+00  -5.68154920e-01
C     1.259744018100000e+00   1.863397980994150e+00  -2.790300000000201e-02  3.04261420e+00  -1.11091317e+00   7.60438610e-01
C     2.534884524800000e+00   2.531407759498217e+00  -1.483595999999991e-01 -2.02017540e-01   2.56682597e+00  -1.13400678e+00
C     2.402453287200000e+00   3.138815412114782e+00   3.150714300000000e+00 -1.84667763e+00  -3.41486422e+00   8.61119760e-01
C     3.596615585900000e+00   3.830194754500515e+00   3.230406300000000e+00  1.84161586e+00  -1.54876586e+00  -2.61882790e-01
C     3.806776901000000e+00   1.887157350704226e+00  -2.490576000000004e-01 -1.91005746e+00  -3.46694580e-01   1.99400155e+00
C     4.948233999399999e+00   2.690064794359342e+00  -1.134327000000006e-01  2.87249860e+00  -2.28838464e+00   2.63742530e-01
C     4.828891961100000e+00   3.145575661321693e+00   3.357887700000000e+00  9.92323690e-01  -2.51534690e+00   6.57427150e-01
C     6.115322118500000e+00   3.775419563974459e+00   3.572569200000000e+00 -1.97497988e+00  -1.18378594e+00   2.43648500e-02
C     6.194462669000000e+00   1.916574241807826e+00   9.019110000000000e-02  8.18267600e-01  -2.21260790e-01  -9.78269390e-01
C     7.457186033999999e+00   2.560105665919401e+00   5.396580000000000e-02 -9.65674560e-01   2.57380556e+00   1.75055600e-01
C     7.335413653599999e+00   3.058579624820720e+00   3.620062200000000e+00  4.78950030e-01  -3.69141180e-01  -1.19930219e+00
C     8.518598814299999e+00   3.858484496220755e+00   3.388721100000000e+00 -1.36470530e-01  -5.49787980e-01   1.57034564e+00
C     8.660943246599999e+00   1.853121025711155e+00   3.111150000000000e-02  1.39228590e+00   2.73012247e+00   5.45599440e-01
C     9.939895333499999e+00   2.549872942710694e+00  -4.251839999999873e-02 -1.78854292e+00   1.44592793e+00  -5.95523240e-01
C     9.738335783799998e+00   3.192256809203863e+00   3.234093600000000e+00  1.66899220e+00  -3.45645941e+00   1.87627180e-01
C     1.103259522490000e+01   3.857382109967787e+00   3.127011300000000e+00 -1.89437687e+00  -2.43350583e+00   6.87536730e-01
C     2.568384712900000e+00   4.023858487505657e+00  -2.790495000000028e-01 -4.69990710e-01  -1.25799510e+00   7.70402140e-01
C     3.796185190400000e+00   4.768744806580956e+00  -2.402678999999992e-01 -2.29853120e-01  -7.04643990e-01  -7.78932500e-02
C     3.633260867500000e+00   5.195710786189924e+00   3.224260200000000e+00 -3.12189090e-01   2.55028880e+00   1.27265021e+00
C     4.851207901900000e+00   5.918936453550920e+00   3.491977200000000e+00  1.20050550e-01  -1.92623924e+00  -6.18067490e-01
C     5.027689281099999e+00   4.101217140608588e+00  -1.344369000000007e-01 -1.84238000e-01  -1.92407634e+00  -2.56701580e-01
C     6.283507047200000e+00   4.748474220382692e+00  -5.262570000000011e-02 -1.49071052e+00  -7.08168200e-01   5.75356490e-01
C     6.071139852900000e+00   5.138764125298804e+00   3.700743300000000e+00  6.80665200e-02   4.62260234e+00  -1.38879514e+00
C     7.278917086100000e+00   5.967835097064641e+00   3.677815200000000e+00 -3.39441170e-01  -2.38552860e+00   9.68452320e-01
C     7.498133874500000e+00   4.018642347563844e+00   3.687300000000000e-02 -5.17554890e-01  -6.23303700e-01  -3.92751450e-01
C     8.716662895399999e+00   4.724138040514693e+00  -2.978519999999918e-02  1.74500790e+00  -2.60275865e+00  -5.26145410e-01
C     8.504739006699999e+00   5.278679910738634e+00   3.600404100000000e+00  8.52449000e-01  -3.36127640e-01  -1.49628170e+00
C     9.739991277800000e+00   5.979109579551909e+00   3.453926400000000e+00  1.19893877e+00  -9.23422230e-01   5.87494150e-01
C     9.965562392500001e+00   3.958276325316113e+00  -2.073689999999999e-01 -2.88851850e-01   2.39111139e+00   1.22126190e+00
C     1.120740286910000e+01   4.749298149503908e+00  -2.311416000000008e-01 -7.65059140e-01  -8.08633410e-01  -5.07412880e-01
C     1.099205933520000e+01   5.206282337334478e+00   3.309776400000000e+00  3.83455300e-02   3.22602143e+00  -4.49713050e-01
C     1.225341684370000e+01   5.878081557909360e+00   3.311666400000000e+00 -3.77753980e-01   2.49309449e+00   1.72259690e-01
C     3.807046670600000e+00   6.152352098213922e+00  -2.079567000000004e-01 -6.85901870e-01   2.51396354e+00  -5.32412730e-01
C     5.054045800600000e+00   6.895165743275410e+00  -1.550306999999975e-01 -3.79338895e+00   7.52219600e-01   1.20738818e+00
C     4.820820811600000e+00   7.327053693915156e+00   3.420203700000000e+00  2.63655581e+00  -2.10607900e-02   1.46117937e+00
C     6.041863787400000e+00   8.091201715100505e+00   3.568063200000000e+00  9.67686600e-01  -3.11803272e+00  -2.70109300e-02
C     6.156736090500000e+00   6.135652440808291e+00   1.160790000000000e-02  6.36627123e+00   1.75666997e+00  -3.37520200e-02
C     7.489307991300000e+00   6.875196840317406e+00   1.050525000000000e-01 -1.04375490e-01  -2.11121371e+00  -7.84493690e-01
C     7.288763725799999e+00   7.343034793588894e+00   3.723130800000000e+00 -6.09897080e-01   2.81140527e+00  -4.97780650e-01
C     8.533318808299999e+00   8.097793404240541e+00   3.723810300000000e+00  2.76180310e-01  -2.93156272e+00  -7.57808230e-01
C     8.774680220000000e+00   6.094927252735922e+00   1.334640000000000e-02 -2.81846092e+00   3.02690150e+00  -5.21382200e-02
C     9.950196124800000e+00   6.842478853152342e+00  -1.043886000000001e-01  1.14406295e+00   2.11579929e+00   1.61420310e-01
C     9.790099797800000e+00   7.390418616643463e+00   3.586123800000000e+00  1.85764260e-01   7.93195100e-02   8.37885370e-01
C     1.104600669830000e+01   8.117783740114849e+00   3.652403400000000e+00 -1.07832269e+00  -2.25894670e+00  -1.47540598e+00
C     1.120702744960000e+01   6.215819830628408e+00  -2.224014000000025e-01 -1.01570005e+00  -2.82769447e+00   1.77868660e-01
C     1.242204212000000e+01   6.892084868294226e+00  -2.068626000000009e-01  1.11332101e+00  -9.26043120e-01   2.99816060e-01
C     1.230328231470000e+01   7.329050883076322e+00   3.479570100000000e+00 -3.08309157e+00   7.51502900e-02   6.54675280e-01
C     1.350013101970000e+01   8.016236973585640e+00   3.516943800000000e+00 -4.25121430e-01   1.94237528e+00  -1.47794850e+00
