64
Lattice="9.86 0 0 4.93 8.53901048131456 0 0 0 30 " PBC="1 1 1" Properties=species:S:1:pos:R:3:force:R:3 Energy="-514.64533029"
C     1.474410717230000e+01   8.533143923629925e+00  -5.381279999999933e-02 -6.32571200e-02  -1.51996058e+00  -1.01200200e-01
C     1.172285768800000e+00   6.927388382442528e-01  -1.039469999999980e-01  9.10612460e-01   3.23323810e-01   2.26471510e-01
C     1.290788523900000e+00   6.822062249874872e-01   3.626780100000000e+00 -6.23531740e-01   1.99437790e+00   1.35315020e-01
C     2.502186398400000e+00   1.480904875767117e+00   3.507476400000000e+00 -2.65337330e-01  -1.12619075e+00  -5.91461180e-01
C     7.314262721099999e+00   8.492521972194259e+00   1.570020000000000e-02  2.33457929e+00   1.59609392e+00  -3.96023070e-01
C     3.686745402200000e+00   6.866481328490783e-01  -5.052959999999729e-02 -1.71999377e+00   2.84989120e-01  -9.43602180e-01
C     3.742994040000000e+00   7.617962069189471e-01   3.568183500000000e+00 -7.26192030e-01  -5.71153150e-01   6.22818670e-01
C     4.956566586799999e+00   1.487842821782117e+00   3.609717900000000e+00  7.12865010e-01  -1.68780216e+00  -5.59374680e-01
C     9.845626092000000e+00   8.524871757227425e+00  -1.029677999999983e-01 -3.71980050e-01   1.48061190e-01   6.12364570e-01
C     6.163366201000000e+00   6.840297306754912e-01  -1.034427000000022e-01 -9.38567670e-01   6.76272510e-01   3.76995890e-01
C     6.204888337200000e+00   7.514628087766800e-01   3.660937500000000e+00 -1.45383683e+00  -1.12813164e+00   4.49989810e-01
C     7.400613692399999e+00   1.461248927543205e+00   3.798272700000000e+00  6.18529480e-01  -1.07752793e+00  -9.13359160e-01
C     1.229235413160000e+01   8.514255717838271e+00  -6.354149999999947e-02  3.69733430e-01  -1.51429764e+00  -1.20855248e+00
C     8.578268921399999e+00   6.694380987870576e-01  -7.863090000000028e-02  7.24674930e-01   6.44374180e-01   7.87740200e-02
C     8.635896480200000e+00   7.586868116427600e-01   3.719882400000000e+00  4.82003560e-01  -5.82692600e-02  -3.32037300e-02
C     9.897908692699998e+00   1.412504071608230e+00   3.595667400000000e+00  6.70898500e-02   6.48295220e-01   4.19260680e-01
C     1.107600786820000e+01   2.122407089428226e+00  -2.812337999999990e-01  4.91143800e-02  -6.20360860e-01   6.14286990e-01
C     2.459041010400000e+00   2.815562460603693e+00  -3.824936999999977e-01  1.07968170e-01   4.90037720e-01  -1.17247330e-01
C     2.487906308300000e+00   2.901372940889623e+00   3.214722300000000e+00 -5.57249600e-02  -1.26058477e+00   6.42795560e-01
C     3.738831394500000e+00   3.597437894496045e+00   3.238563900000000e+00 -2.70339740e-01  -1.42841420e-01   5.90155760e-01
C     3.701169744100000e+00   2.117727797075290e+00  -2.856030000000018e-01 -6.03812870e-01  -1.48392530e+00   9.03397540e-01
C     4.936510114300000e+00   2.810061032321743e+00  -2.073158999999976e-01 -2.90121830e-01  -5.78609280e-01   4.36231700e-02
C     4.946804397999999e+00   2.885692499774885e+00   3.504656700000000e+00  4.15001400e-02   5.41873430e-01  -1.74836600e-02
C     6.163817000200000e+00   3.575215375892160e+00   3.682578600000000e+00  4.97909200e-01   2.10941251e+00   1.44223020e-01
C     6.179069384900000e+00   2.115643083056703e+00  -7.431330000000003e-02 -6.26313260e-01  -7.57287740e-01  -1.47327320e-01
C     7.409237149800000e+00   2.808889394693783e+00  -2.747190000000188e-02 -1.22983890e+00   1.99169360e-01  -3.02952360e-01
C     7.385117223399999e+00   2.837157618107613e+00   3.776520300000000e+00  8.14122540e-01   3.17476217e+00  -1.51716770e-01
C     8.650689980499999e+00   3.582903986318457e+00   3.661794600000000e+00 -5.17447250e-01  -8.82535030e-01   2.71543210e-01
C     8.603923113099999e+00   2.081492676883620e+00  -1.141164000000003e-01  1.15607974e+00   1.11443011e+00   5.70454410e-01
C     9.852914505399999e+00   2.830479428791414e+00  -1.920275999999994e-01 -7.40969080e-01  -1.07928472e+00  -9.11971530e-01
C     9.864578244499999e+00   2.849631148446482e+00   3.507676200000000e+00  1.24855114e+00   2.88948420e-01  -8.36956410e-01
C     1.109590041820000e+01   3.577344151204824e+00   3.184324200000000e+00 -5.78122660e-01   1.38920900e-02   8.06261970e-01
C     1.231539325410000e+01   4.252903098094050e+00  -4.926570000000012e-01 -1.32130036e+00  -7.93942170e-01   3.48854260e-01
C     3.685429535900000e+00   4.940948554618076e+00  -4.136708999999996e-01 -9.80352700e-02   2.53371240e-01   1.58253340e-01
C     3.731475390800000e+00   5.011151943889291e+00   3.285265200000000e+00  6.01160200e-01   1.80049890e-01   1.34233270e-01
C     4.935369263000000e+00   5.772464159694231e+00   3.535068300000000e+00  2.87755220e-01  -1.35011014e+00   2.58873400e-01
C     4.871204819999999e+00   4.196777121500163e+00  -2.192940000000014e-01  2.43611924e+00   2.46510454e+00  -2.68550410e-01
C     6.143366670000000e+00   4.960470525767557e+00  -9.414089999999931e-02 -1.62591366e+00  -1.20947183e+00   7.24447950e-01
C     6.175123511499999e+00   5.085665484090391e+00   3.738521100000000e+00 -3.21974080e-01  -3.18687630e+00  -7.61461860e-01
C     7.424508712200000e+00   5.730511488865362e+00   3.815650800000000e+00  7.58219410e-01  -4.75506780e-01   4.62395600e-02
C     7.349918058699999e+00   4.230894140142269e+00  -3.241199999997946e-03  9.18427610e-01   3.05514760e-01  -6.78603910e-01
C     8.568642258300001e+00   4.941041971392727e+00  -1.073292000000023e-01  1.69657940e+00   8.42279880e-01  -2.16415900e-02
C     8.683909060000000e+00   5.001890533122683e+00   3.700050300000000e+00 -1.06854351e+00   1.38555960e-01  -7.60246750e-01
C     9.885783554900000e+00   5.731596540927057e+00   3.446840400000000e+00  3.66840400e-02  -1.26001449e+00   3.66425440e-01
C     9.830743950300000e+00   4.235010967874887e+00  -3.184248000000025e-01 -1.44713851e+00   4.04054400e-01   9.57539030e-01
C     1.103626915950000e+01   4.939216501732314e+00  -4.375380000000000e-01  1.84133767e+00   1.29645785e+00   3.68894980e-01
C     1.111328828170000e+01   5.012118303705313e+00   3.150665700000000e+00 -1.11643959e+00  -4.87842780e-01   1.21538552e+00
C     1.235182452440000e+01   5.672618022492220e+00   3.257009100000000e+00  7.29905000e-02   2.18315751e+00  -3.27180210e-01
C     3.716355869600000e+00   6.367982777239284e+00  -3.684963000000003e-01 -1.07107463e+00   5.02059430e-01   1.12183420e+00
C     4.904614098900000e+00   7.082529650518723e+00  -6.324569999999952e-02  4.27660380e-01   3.90833370e-01  -6.58132770e-01
C     4.945968615100000e+00   7.167277792510836e+00   3.640896900000000e+00 -9.04630630e-01   4.85482980e-01   4.12133560e-01
C     6.194224747199999e+00   7.804623301260386e+00   3.822991200000000e+00 -2.04219170e-01   1.95944556e+00  -1.08114174e+00
C     6.151717892799999e+00   6.373596493509044e+00   2.871390000000000e-02 -1.21112628e+00  -3.22094260e-01  -6.14653760e-01
C     7.361486648799999e+00   7.084498319384886e+00   6.744509999999999e-02  4.10294590e-01   1.25139970e-01  -1.04218200e-02
C     7.419480161499999e+00   7.136385872736921e+00   3.836914200000000e+00  1.10817263e+00   3.65212900e-02  -4.06681940e-01
C     8.656670169100000e+00   7.850232632547105e+00   3.703259100000000e+00 -6.68516840e-01   1.03837251e+00   1.94968620e-01
C     8.608908526299999e+00   6.388216731082586e+00  -3.035909999999831e-02 -7.46212330e-01  -7.46279490e-01   5.90974400e-02
C     9.814989099999998e+00   7.118975769659354e+00  -8.870939999999905e-02  2.01098565e+00  -1.51975835e+00  -6.28102340e-01
C     9.858749899899999e+00   7.125575485469240e+00   3.620209200000000e+00  1.49956931e+00   8.77184760e-01  -7.56644700e-01
C     1.112199500680000e+01   7.826980138499122e+00   3.572069100000000e+00 -6.51614840e-01   1.00860780e+00  -2.23560870e-01
C     1.109139306710000e+01   6.381809399178814e+00  -2.781993000000007e-01 -1.92727721e+00  -2.81816150e-01  -3.18833080e-01
C     1.231180924270000e+01   7.082826637303216e+00  -3.078873000000009e-01  5.43208570e-01   2.10208700e-01   7.50616540e-01
C     1.233902185670000e+01   7.115186925319272e+00   3.427719300000000e+00  6.68476200e-01   8.05365090e-01   8.09683710e-01
C     1.355998812170000e+01   7.908385855619048e+00   3.621897300000000e+00  1.24053500e-02  -2.67379366e+00  -6.83635650e-01
