72
Lattice="7.395 0 0 3.6975 6.40425786098592 0 0 0 13.6 " PBC="1 1 1" Properties=species:S:1:pos:R:3:force:R:3 Energy="-572.59446919"
C     3.732863888325000e+00   6.101222275304356e+00   2.290578640000000e-01 -8.84391040e-01   2.05124676e+00   6.72830860e-01
C     1.211278962900000e+00   5.429021315633916e-01   1.816218800000000e-01  3.10947950e-01  -3.01082809e+00   7.47409100e-02
C     1.517845861050000e+00   1.137985003403648e+00   3.335248904000000e+00 -5.72991560e-01  -1.18508333e+00  -5.71975000e-03
C     2.714259321000000e+00   1.918694648890219e+00   3.160898944000000e+00 -2.18742578e+00  -6.27770200e-01   5.74937810e-01
C     6.105363284325000e+00   6.171225040524344e+00   3.049508960000000e-01  2.46568693e+00  -2.18665630e-01  -3.98770590e-01
C     3.707251231874999e+00   5.006686767224142e-01   2.404590160000000e-01 -1.74485954e+00  -8.05257370e-01   5.71907600e-02
C     3.822306598200000e+00   1.067935230930968e+00   3.274263240000000e+00  2.72558739e+00   3.58226957e+00   4.03336550e-01
C     5.050704394500000e+00   1.759014725963695e+00   3.414743896000000e+00  3.26238065e+00   2.11925551e+00  -4.50057400e-02
C     8.615092730624999e+00   6.168099378433192e+00   3.896786240000000e-01 -5.57786580e-01  -4.40369790e-01  -5.45914200e-02
C     6.198969896850000e+00   4.366320540822241e-01   4.339939520000000e-01 -1.45425904e+00  -1.72117420e-01  -2.15384123e+00
C     6.360944985224999e+00   1.164834918524277e+00   3.563768344000000e+00  1.63735202e+00  -3.42329557e+00  -5.72183050e-01
C     7.673207110125000e+00   1.801417893637963e+00   3.400009792000000e+00 -2.52514454e+00   1.03253292e+00   3.12370300e-02
C     1.166055579900000e+00   1.960624734036368e+00   1.044685360000000e-01  2.72518369e+00  -3.09588950e+00  -6.54690800e-02
C     2.431602306600000e+00   2.652433033613563e+00   7.061650400000000e-02 -3.58114270e-01  -1.42932703e+00   1.19009500e-01
C     2.677684242600000e+00   3.396936847714410e+00   3.170773904000000e+00  3.15685840e-01  -3.44014397e+00   1.13750595e+00
C     3.962607348300000e+00   4.010213703794299e+00   3.437832480000000e+00 -1.28828595e+00  -3.44563338e+00  -1.23527540e+00
C     3.704547398025000e+00   1.922049775540495e+00   8.662792000000000e-02 -1.93068917e+00  -1.06103942e+00   1.04045730e+00
C     4.914578121900000e+00   2.584466950478213e+00   3.085653680000000e-01 -3.51368610e-01  -1.74892504e+00  -8.21707180e-01
C     5.168094953924999e+00   3.211631119514618e+00   3.412586256000000e+00 -2.06524591e+00  -1.13005781e+00   5.81441100e-01
C     6.416021318324999e+00   3.832484596898358e+00   3.495991928000000e+00 -2.27817634e+00   4.12302043e+00  -3.91771630e-01
C     6.131170281375000e+00   1.900881269695208e+00   3.065261840000000e-01 -6.89856500e-01  -4.65977776e+00   5.80351620e-01
C     7.323644239949999e+00   2.519453870642109e+00   2.017885040000000e-01  1.16973494e+00   3.33781933e+00   9.06213700e-01
C     7.595719527000000e+00   3.228118561162295e+00   3.337220632000000e+00  2.50852038e+00  -2.31787742e+00  -2.23374060e-01
C     8.750034804900000e+00   4.016797280874378e+00   3.243101016000000e+00  4.25560067e+00  -1.19247243e+00   1.11591898e+00
C     2.388989432550000e+00   4.029864784782237e+00   1.739784080000000e-01  1.21362842e+00   1.69706238e+00   1.55458490e-01
C     3.730499780775000e+00   4.672937898853825e+00   1.754988880000000e-01 -2.94822227e+00   1.22575886e+00   6.98800240e-01
C     3.957889042500000e+00   5.343791146500207e+00   3.581746320000000e+00  2.79374203e+00   4.29832020e+00  -1.81027400e-01
C     5.221997293799999e+00   6.079185544220990e+00   3.489752520000000e+00  5.23204830e-01  -3.05233240e-01  -2.07871080e-01
C     4.899402139874999e+00   3.930607049444876e+00   3.454685600000000e-01  1.28642231e+00   4.18943850e+00  -5.12794040e-01
C     6.136790074649999e+00   4.683948675349945e+00   4.515888160000000e-01 -1.08981117e+00   6.99698460e-01  -5.81296290e-01
C     6.457983247500000e+00   5.305470501083954e+00   3.464493240000000e+00 -1.86188779e+00   1.31303059e+00  -3.44794350e-01
C     7.633236136799999e+00   6.129236996844561e+00   3.375571136000000e+00 -2.29783500e-01  -4.80380845e+00   1.23806979e+00
C     7.338989234700000e+00   3.889311177954602e+00   4.552506160000000e-01 -3.43089060e-01   5.16375436e+00  -1.48929588e+00
C     8.500702507574999e+00   4.732240430041324e+00   3.649844240000000e-01  3.04698610e+00  -1.31949597e+00  -4.42011060e-01
C     8.881144013700000e+00   5.355081212681601e+00   3.545923512000000e+00 -1.18165120e-01   4.02258463e+00  -1.07198555e+00
C     1.019622111930000e+01   6.083204216028140e+00   3.653242200000000e+00 -4.98920575e+00   9.35471980e-01  -1.14708290e+00
C     7.390430999249999e+00   1.790056676151744e-01   6.348807487999999e+00 -2.24758225e+00   2.70313613e+00   1.53813425e+00
C     1.184581386000000e+00   9.588894200081196e-01   6.383353392000000e+00 -8.12628190e-01   1.17035183e+00   3.46659100e-02
C     1.089521101350000e+00   3.341037282983400e-01   1.039508778400000e+01  1.14764850e-01  -1.12311874e+00  -9.27429890e-01
C     2.325014658975000e+00   1.002385794499089e+00   9.991678327999999e+00 -1.43316019e+00   1.32032602e+00   1.26793217e+00
C     2.408737669125000e+00   2.860162694326938e-01   6.562797775999999e+00  4.32127760e-01  -2.02806159e+00   4.96899070e-01
C     3.749563610100000e+00   8.789650504262628e-01   6.575072728000000e+00 -1.67153963e+00   1.29904436e+00   3.01849000e-02
C     3.567657850500000e+00   3.396097249508964e-01   9.940630047999999e+00 -4.89045938e+00  -4.24260599e+00   1.91249620e-01
C     4.689478019400000e+00   9.597985684539253e-01   1.008775607200000e+01  8.43222780e+00   4.87947976e+00   2.35220179e+00
C     5.036643171750000e+00   2.387285742886044e-01   6.657413384000000e+00 -3.52490607e+00  -1.42029040e-01  -5.98370210e-01
C     6.159565713299999e+00   1.042727815823694e+00   6.527908335999999e+00  2.59110742e+00  -4.34630523e+00  -7.88188450e-01
C     6.067211961675000e+00   3.549999891419982e-01   1.038947887200000e+01 -2.92322605e+00   9.41801650e-01  -9.91888450e-01
C     7.264063020749999e+00   1.082559097583964e+00   1.054072107200000e+01  6.13211790e-01  -8.80104880e-01  -1.28462025e+00
C     8.475368198925000e+00   2.463334447738764e+00   6.310439983999999e+00  3.33936102e+00  -3.77515915e+00   2.33555380e-01
C     2.379927673500000e+00   3.019883732588923e+00   6.373462927999999e+00  9.28648020e-01  -1.08401188e+00   2.40807040e-01
C     2.361744440775000e+00   2.441180838949453e+00   9.994881535999999e+00 -2.25419591e+00  -4.55331110e-01   9.02082860e-01
C     3.589813751175000e+00   3.127441642283158e+00   1.011502339200000e+01 -2.40673712e+00   2.20227967e+00   5.95407040e-01
C     3.670722852900000e+00   2.296606318824418e+00   6.478375096000000e+00 -2.23455750e-01   1.47895884e+00   4.61253110e-01
C     4.863058968674999e+00   3.108789369351066e+00   6.591851864000000e+00  4.96019130e-01  -2.56992669e+00  -7.53970490e-01
C     4.758845190000000e+00   2.406148459731416e+00   1.027854680000000e+01  1.21751360e+00   2.77756330e-01  -7.93688000e-01
C     6.033038372549999e+00   3.164997939523821e+00   1.039806727200000e+01 -1.76302648e+00  -1.90905942e+00  -1.89145600e-01
C     6.175050880274999e+00   2.396292242842298e+00   6.446251760000000e+00 -3.21652728e+00   3.51761782e+00   7.84901590e-01
C     7.321299396375000e+00   3.195160521065113e+00   6.290623696000000e+00 -3.49513570e-01   1.46814135e+00   1.41188557e+00
C     7.258272366000000e+00   2.482577129202971e+00   1.041346777600000e+01  1.22641941e+00   4.85458320e-01  -5.02358970e-01
C     8.482203434399999e+00   3.174828731509235e+00   1.018458018400000e+01  1.19688894e+00   1.16227363e+00   1.22563210e-01
C     9.778786495424999e+00   4.384605785736376e+00   6.399009576000000e+00 -4.38830150e-01   3.49324630e+00   5.50850480e-01
C     3.546207580725000e+00   5.178405990459102e+00   6.445945896000000e+00  2.77635188e+00  -1.52427250e-01   6.38062400e-01
C     3.439902459075000e+00   4.612232450939514e+00   1.031551908000000e+01  6.07314813e+00  -3.27269326e+00  -1.03066230e-01
C     4.689732740175000e+00   5.258495205638275e+00   1.041016841600000e+01  2.58620560e+00   1.54228565e+00  -7.09685910e-01
C     4.798591022549999e+00   4.507032076648701e+00   6.632292280000000e+00 -3.96916490e-01  -3.78945840e-01  -4.76490660e-01
C     5.982428693400000e+00   5.221982802428793e+00   6.714360392000000e+00  3.92189523e+00   3.53569348e+00  -1.49499173e+00
C     5.977232522700000e+00   4.528164078224187e+00   1.030785575200000e+01  3.17084280e-01   3.57473050e+00  -5.71952140e-01
C     7.245023410050000e+00   5.311095745017863e+00   1.007351836800000e+01 -1.26067125e+00  -1.15707293e+00   1.07505334e+00
C     7.324608769799999e+00   4.702491307387474e+00   6.489953455999999e+00 -2.32097642e+00  -5.70416766e+00   3.34085940e-01
C     8.604447776024999e+00   5.207327234699390e+00   6.527637832000000e+00  8.73310200e-01   1.48453300e+00  -1.42745800e-02
C     8.481776373149998e+00   4.663470548501966e+00   1.017408683200000e+01  3.23424970e-01  -1.72659652e+00  -5.01987770e-01
C     9.771255057674999e+00   5.397087444453706e+00   1.025108078400000e+01 -5.18722968e+00  -1.53593175e+00  -1.75524300e-02
