72
Lattice="7.395 0 0 3.6975 6.40425786098592 0 0 0 13.6 " PBC="1 1 1" Properties=species:S:1:pos:R:3:force:R:3 Energy="-574.81234678"
C     3.728347429050000e+00   6.231952711213430e+00   1.358593814400000e+01 -2.45692773e+00  -1.17603200e+00  -9.01879380e-01
C     1.255058102400000e+00   4.718297271956268e-01   1.972217600000000e-02 -5.94432070e-01   1.57323576e+00   4.88765000e-02
C     1.382700498225000e+00   1.069386115549152e+00   3.645649864000000e+00  1.32703092e+00  -2.14419289e+00  -5.12408400e-01
C     2.650726472625000e+00   1.690559037314948e+00   3.741896792000000e+00 -1.79247553e+00   4.05494771e+00  -1.33113672e+00
C     6.181364102700000e+00   6.218591123784639e+00   1.356401045600000e+01 -9.64524310e-01   1.02197090e-01   6.73726900e-02
C     3.684040397475000e+00   5.244088763539627e-01   1.355481345600000e+01  8.73286120e-01  -1.09490270e-01  -4.46303050e-01
C     3.841747905300000e+00   1.008363592828192e+00   3.623785008000000e+00  1.55307675e+00   2.74174918e+00   7.17155740e-01
C     5.083784004300000e+00   1.693254269235329e+00   3.679927304000000e+00  9.40463060e-01   1.21439134e+00  -1.63280262e+00
C     8.586770989874999e+00   6.138343531308589e+00   1.354745096000000e+01 -2.11164520e-01   4.63816563e+00  -6.39214150e-01
C     6.106943300025000e+00   4.066413628218942e-01   1.357691386400000e+01  2.36728265e+00   3.82417060e+00   5.93209820e-01
C     6.385495091099999e+00   9.748279527146161e-01   3.533644480000000e+00 -3.53282788e+00   1.52054320e+00   8.57372120e-01
C     7.543132203000000e+00   1.741180532930639e+00   3.572619632000000e+00  2.19759349e+00  -1.25711876e+00   2.10429820e-01
C     1.236487704450000e+00   1.851154705072873e+00   8.431075200000000e-02 -6.09863140e-01   5.28981947e+00  -9.24762120e-01
C     2.463012827925000e+00   2.644017390487473e+00   5.221543200000000e-02 -7.67237880e-01   6.73842720e-01  -1.21696477e+00
C     2.657452594875000e+00   3.166031138444374e+00   3.632902584000000e+00 -9.40021800e-01   1.03431365e+00   6.62219440e-01
C     3.874793202299999e+00   3.959983572376432e+00   3.704231456000000e+00 -7.78772570e-01  -4.54119194e+00  -1.65560181e+00
C     3.717637879125000e+00   1.960077746372546e+00   1.349918959200000e+01 -3.90704133e+00  -2.02762674e+00   1.91661448e+00
C     4.862857270050000e+00   2.608852443131735e+00   1.204617280000000e-01  4.32646092e+00   2.25748401e+00  -1.09860279e+00
C     5.053551210675000e+00   3.171565313831515e+00   3.597921480000000e+00  1.55545748e+00  -2.64595824e+00   1.68543268e+00
C     6.327175311000000e+00   3.723135032025209e+00   3.672759424000000e+00  1.05252561e+00   6.01811085e+00  -8.92798030e-01
C     6.099072505725000e+00   1.848436289739039e+00   8.179271200000000e-02  1.54595549e+00   2.55891385e+00  -5.24009310e-01
C     7.378721756250000e+00   2.702137247375967e+00   1.357940851200000e+01 -7.99564760e-01  -3.10436333e+00   1.90633537e+00
C     7.608689728424999e+00   3.112835707552171e+00   3.630049303999999e+00 -2.84840753e+00   1.72842179e+00  -4.16777890e-01
C     8.765367819749999e+00   3.921274060422919e+00   3.551796264000000e+00  2.30456926e+00  -2.35947173e+00   1.41515596e+00
C     2.418409145925000e+00   4.109188114763932e+00   1.354418492000000e+01  6.95185580e-01  -9.57745020e-01  -8.94072050e-01
C     3.677142526350000e+00   4.855735079249855e+00   1.346731894400000e+01  5.00198100e-01  -4.23983846e+00   1.67867813e+00
C     3.888728414250000e+00   5.304025060084951e+00   3.508886632000000e+00  9.93769730e-01   1.28321861e+00   8.54462040e-01
C     5.118308855925000e+00   6.045794832462786e+00   3.553385832000000e+00  4.82024110e-01  -9.86737410e-01   2.75149800e-01
C     4.911522581850000e+00   4.057314970992083e+00   6.439178399999999e-02 -8.10308820e-01   1.22015237e+00  -8.46041050e-01
C     6.131361996750000e+00   4.826574443850761e+00   1.359493644800000e+01 -5.27169610e-01  -1.58482699e+00   8.36687520e-01
C     6.372049058400000e+00   5.315732811963975e+00   3.624897624000000e+00 -2.09717472e+00  -1.89688392e+00  -2.92880720e-01
C     7.546869894824999e+00   6.086604044398277e+00   3.587830144000000e+00  1.28880654e+00  -5.93912090e+00   7.80970940e-01
C     7.359535428749998e+00   4.182630542837948e+00   5.584350400000000e-02 -6.87747600e-02  -4.97922735e+00  -1.86275626e+00
C     8.563645604700000e+00   4.823532037111788e+00   1.339778146400000e+01  1.45778881e+00  -3.90894804e+00   2.18979255e+00
C     8.789183380275000e+00   5.317831167051803e+00   3.674766648000000e+00  3.00817470e-01   6.14060350e-01  -1.71392104e+00
C     1.007412567600000e+01   5.961661520572758e+00   3.550025952000000e+00 -2.05821557e+00   1.48037888e+00   2.38808630e-01
C     7.418332297275000e+00   1.875046941786018e-01   7.085167656000000e+00 -1.31430370e-01   3.37690550e-01  -9.24101000e-01
C     1.281429264000000e+00   8.970928146396215e-01   6.999471472000000e+00 -3.01761986e+00   1.71990865e+00  -1.02888690e-01
C     1.064746816050000e+00   3.788879350023768e-01   9.785242976000001e+00  5.93765520e-01   1.40096614e+00   1.40048463e+00
C     2.334037002675000e+00   1.087895573530966e+00   9.918417440000001e+00 -2.37166112e+00   6.79654700e-01  -4.20188500e-02
C     2.460864210675000e+00   2.389565018258418e-01   6.801575696000000e+00  1.86772246e+00  -2.10528653e+00   4.67991350e-01
C     3.750115461975000e+00   8.684899260575538e-01   6.753572456000000e+00 -1.75817833e+00   2.08239650e-01   5.40455900e-01
C     3.523070733300000e+00   4.106732914428144e-01   1.008064136800000e+01 -2.20974320e-01  -1.23500740e+00  -9.92418700e-01
C     4.702397712974999e+00   1.107887232951899e+00   9.924596599999999e+00  4.38155591e+00   1.17815900e+00   2.78582290e-01
C     4.970317934400000e+00   2.364624916874220e-01   6.915122503999999e+00  6.88635690e-01  -2.60378537e+00   2.53920770e-01
C     6.171573418500000e+00   9.738409284932329e-01   7.072544951999999e+00  9.09027990e-01  -2.75929628e+00  -1.22084284e+00
C     6.049989635250000e+00   3.616084787851536e-01   9.847552464000000e+00 -1.94319246e+00   3.49158800e+00   6.94372850e-01
C     7.249220479275000e+00   1.188784665473005e+00   9.791636880000000e+00 -1.20231170e-01  -3.93987953e+00  -2.65473480e-01
C     8.623115750999998e+00   2.350031150233166e+00   7.052572671999999e+00  2.84425310e-01  -1.58401226e+00  -1.76687956e+00
C     2.465007037575000e+00   2.991355773823818e+00   6.854273655999999e+00  2.23619600e-01  -4.60002520e-01   1.09920760e+00
C     2.319326424975000e+00   2.505656729636260e+00   9.862919920000000e+00 -4.30686400e-01   9.32424390e-01   2.34344190e-01
C     3.514059740925000e+00   3.273101363902571e+00   9.768642679999999e+00  1.72420951e+00  -1.03142324e+00   1.20401043e+00
C     3.696846503850000e+00   2.231523432577640e+00   6.793197687999999e+00  8.79917330e-01   4.88491448e+00  -1.00172400e-02
C     4.916388565800000e+00   3.074144063478088e+00   6.838843367999999e+00  9.58799800e-02  -3.21638095e+00   1.82824500e-01
C     4.778730936599999e+00   2.594424034428626e+00   9.845322063999999e+00 -4.94610230e-01  -2.65266519e+00  -3.04456940e-01
C     6.085026775499999e+00   3.267711732615330e+00   9.813736336000000e+00 -4.31634367e+00  -3.12739761e+00  -3.27510000e-01
C     6.169901482949999e+00   2.352760004507313e+00   6.932421023999999e+00 -4.42795800e-01   9.99342010e-01  -4.48799000e-03
C     7.402175553375000e+00   3.040015965469884e+00   6.960510735999999e+00 -9.90194110e-01   2.17991437e+00  -1.06870190e-01
C     7.260100114199999e+00   2.589114392322058e+00   9.718592096000000e+00  8.30424210e-01  -2.40681464e+00   1.91514042e+00
C     8.463845975475000e+00   3.215059318747076e+00   9.918022632000001e+00  1.25953893e+00   2.96025670e+00  -7.42378200e-01
C     9.847977036450001e+00   4.375675624533814e+00   7.020056568000000e+00  1.07856906e+00   3.48620694e+00  -1.39621000e+00
C     3.738440125050000e+00   5.155246336802562e+00   6.975979104000000e+00 -3.64076544e+00   5.57230850e-01   3.69185770e-01
C     3.545087940750000e+00   4.695495936526996e+00   9.770795423999999e+00 -7.00248960e-01  -2.35075282e+00   5.93082030e-01
C     4.729090372200000e+00   5.355802844457266e+00   9.827643560000000e+00  3.12376877e+00   5.39154300e-01  -1.80528450e-01
C     4.919571336824999e+00   4.456589900253091e+00   6.915414903999999e+00  1.29940247e+00   1.22612601e+00  -5.98057110e-01
C     6.152319648600000e+00   5.226597198302080e+00   6.871423528000000e+00 -1.85824262e+00  -6.08161300e-01  -3.84932420e-01
C     6.001600785525000e+00   4.576622215534770e+00   9.838343223999999e+00 -6.93357770e-01   7.17658675e+00   1.36262264e+00
C     7.180281848925000e+00   5.379625082632001e+00   1.005541595200000e+01  1.05464360e+00  -6.27207760e-01  -8.30275740e-01
C     7.318786797225000e+00   4.522748445650035e+00   6.878733664000000e+00  4.59918314e+00  -2.16907244e+00   4.38021200e-01
C     8.635009684124999e+00   5.179538775589378e+00   6.964364567999999e+00 -3.89154420e-01  -2.67017550e-01  -3.21345340e-01
C     8.403130437225000e+00   4.698909854264427e+00   9.981198575999999e+00  3.44751888e+00  -1.55536140e+00  -8.98345000e-03
C     9.769771287899999e+00   5.377726412304247e+00   9.888372455999999e+00 -4.75517606e+00   7.82607260e-01   4.19654500e-01
