72
Lattice="7.395 0 0 3.6975 6.40425786098592 0 0 0 13.6 " PBC="1 1 1" Properties=species:S:1:pos:R:3:force:R:3 Energy="-569.98350124"
C     3.623468470125000e+00   6.150720784304297e+00   1.352748466400000e+01  1.09238600e-01   2.56294934e+00   2.08920871e+00
C     1.152338668350000e+00   4.882884137255124e-01   1.352957933600000e+01  1.15973696e+00  -5.93013220e-01   4.10300050e-01
C     1.431477252675000e+00   1.009050193313362e+00   3.352374432000000e+00 -2.26631673e+00   1.12235260e+00   1.19647242e+00
C     2.707390364325000e+00   1.723787016880929e+00   3.157446584000000e+00 -5.39015690e-01  -1.87893641e+00   2.42541254e+00
C     6.130199687625000e+00   6.192425567658931e+00   1.533113040000000e-01 -1.51782151e+00  -1.58166095e+00  -2.92919890e-01
C     3.662495693550000e+00   4.417826144235504e-01   7.906455200000000e-02  1.31396288e+00   1.51999590e+00   8.45690930e-01
C     3.959865393224999e+00   1.110869567752144e+00   3.512128328000000e+00 -1.15470742e+00  -3.33526530e+00  -1.02945593e+00
C     5.149240181250001e+00   1.828486706292246e+00   3.606661112000000e+00  1.06283076e+00  -1.24829390e-01   1.38804556e+00
C     8.633941994024999e+00   6.254662273627568e+00   1.505585280000000e-01  4.08526300e-02  -2.99433152e+00   7.78668800e-01
C     6.114665565750000e+00   6.520725693441960e-01   2.204553200000000e-01  6.54061480e-01  -5.89487922e+00  -1.80889036e+00
C     6.371351598975000e+00   1.095478727177835e+00   3.794384088000000e+00 -7.50777390e-01   3.06771300e-01  -1.50200535e+00
C     7.566386187225000e+00   1.805665965961658e+00   3.469623568000000e+00  1.62102069e+00  -1.44529188e+00  -1.50337700e-02
C     8.527346248875000e+00   1.986421917249970e+00   1.343790867200000e+01  3.84207760e+00  -4.66863821e+00   8.37239510e-01
C     2.426999288850000e+00   2.569730753142353e+00   1.320931171200000e+01  7.50357710e-01   6.50039850e-01   2.43975982e+00
C     2.669213787750000e+00   3.096161005404668e+00   3.329435312000000e+00  9.68422050e-01   2.27491885e+00   1.65656150e-01
C     3.911494624275000e+00   3.832300922782933e+00   3.576229888000000e+00 -1.73547091e+00   2.43191939e+00   1.81441502e+00
C     3.717703361850000e+00   1.857352105403995e+00   3.338310400000000e-02 -2.32418407e+00   2.10065302e+00  -2.61299863e+00
C     4.909152965025000e+00   2.652890489752503e+00   1.760759360000000e-01 -7.04154340e-01   8.68427310e-01   1.01227167e+00
C     5.195495499525000e+00   3.253077298936866e+00   3.756785391999999e+00 -1.01971745e+00  -8.24870890e-01  -2.94333483e+00
C     6.406943253300000e+00   4.001547333972988e+00   3.547959840000000e+00 -1.67885650e+00  -4.47076680e-01   5.21758500e-01
C     6.126142494824999e+00   2.003855972251934e+00   3.785588560000000e-01  1.67512905e+00  -8.61782810e-01   5.29241400e-02
C     7.481058609974999e+00   2.597029734824125e+00   4.584025520000000e-01 -4.42465975e+00  -1.58255480e-01  -2.60781596e+00
C     7.582808226750000e+00   3.240474808192222e+00   3.293895384000000e+00 -1.03744605e+00  -1.28933982e+00   1.81105842e+00
C     8.827662264449998e+00   3.825326109590185e+00   3.380941640000000e+00  2.30297210e+00   1.58597720e+00  -7.56545620e-01
C     2.434493307900000e+00   4.010443872821786e+00   1.327191210400000e+01  5.34681550e-01  -8.64707220e-01   2.69600619e+00
C     3.644510942625000e+00   4.704476050940866e+00   1.354872936000000e+01  1.42283675e+00   2.67695332e+00  -4.91151250e-01
C     3.804978412350000e+00   5.293888272658986e+00   3.914326160000000e+00  5.64664700e-02  -2.72320380e-01  -2.24112134e+00
C     5.007780560700000e+00   6.011662507644394e+00   3.738805784000000e+00  2.29570343e+00   2.76746212e+00  -1.33367670e+00
C     4.910518229925000e+00   4.123650209863384e+00   2.459566800000000e-01 -1.80222684e+00  -3.00613713e+00  -9.10583500e-01
C     6.143155875525000e+00   4.739951028419608e+00   4.573035360000000e-01  6.90975800e-01   1.58573600e+00  -2.14220619e+00
C     6.301261493175000e+00   5.456238835155709e+00   3.582113928000000e+00  1.42875782e+00  -5.00236872e+00   3.58684920e-01
C     7.609221244050000e+00   5.948260354830394e+00   3.569748944000000e+00  2.54562450e-01   5.12306593e+00  -1.01819417e+00
C     7.370734268849999e+00   3.923854079744399e+00   3.188794720000000e-01  2.70701298e+00   7.33397417e+00   1.21126586e+00
C     8.723802373500000e+00   4.710829907291508e+00   1.938159120000000e-01 -4.20632831e+00   1.42805725e+00  -2.33632198e+00
C     8.860860674925000e+00   5.241985285045510e+00   3.492221872000000e+00 -1.93335080e+00   1.92672379e+00   1.77072886e+00
C     9.978507586499999e+00   6.087390935561536e+00   3.841832856000000e+00  2.11975207e+00  -3.08433807e+00  -1.18873586e+00
C     7.337444604074999e+00   2.569569493929438e-01   7.016182743999999e+00  1.15137002e+00  -1.18999744e+00  -1.31828328e+00
C     1.198979487975000e+00   9.180303189038982e-01   6.746919200000000e+00  5.47511730e-01  -1.30567661e+00   1.42987550e-01
C     1.093558216725000e+00   3.782785698669978e-01   1.003585221600000e+01 -9.03615480e-01   1.29536632e+00  -9.36093720e-01
C     2.297924814300000e+00   1.105685256971896e+00   9.784126823999999e+00  3.42846800e-02  -1.91452390e-01   4.21693170e-01
C     2.439164877300000e+00   1.538895772249836e-01   6.785228088000000e+00  2.63580570e-01   2.12392885e+00  -5.73701050e-01
C     3.575389101149999e+00   1.017748008040764e+00   6.748485512000000e+00  1.73472685e+00  -1.22540543e+00  -2.93475930e-01
C     3.528841643400000e+00   3.972325473868752e-01   9.861043936000000e+00  1.83240935e+00   6.46463700e-01   1.00665464e+00
C     4.766999878349999e+00   1.140110320417068e+00   9.989212512000000e+00  9.02035300e-02  -2.84082458e+00  -7.10863320e-01
C     4.763960829149999e+00   1.840732287746352e-01   6.882530920000000e+00  1.99201405e+00   2.17452444e+00  -3.88166480e-01
C     6.044099665650000e+00   8.080760640036084e-01   6.867826736000000e+00  6.97083860e-01   4.52750606e+00   4.20897530e-01
C     5.969824248675000e+00   3.270336197486358e-01   1.022355220800000e+01 -2.16760010e-01   1.87174533e+00  -1.42589797e+00
C     7.216796473200000e+00   1.025025678587711e+00   1.009850184000000e+01 -1.47595310e-01   2.67177180e-01   1.23207015e+00
C     8.663790321599999e+00   2.300261484955434e+00   6.509388400000000e+00 -1.16072467e+00   1.61176970e+00   2.23788226e+00
C     2.432540547225000e+00   3.193884536729087e+00   6.588318176000000e+00  1.21977347e+00  -1.83692025e+00  -6.97090700e-01
C     2.303304750750000e+00   2.542015942997731e+00   9.626686696000000e+00 -7.41009210e-01  -9.69717120e-01   1.43983375e+00
C     3.561202459200000e+00   3.231769372397966e+00   9.702387288000001e+00 -6.55059130e-01   5.43590210e-01   2.26493110e-01
C     3.682122430275000e+00   2.498121479838184e+00   6.583013088000000e+00 -9.41210400e-01  -3.43423865e+00   1.14535334e+00
C     4.976223729299999e+00   3.081525098746895e+00   6.672597920000000e+00 -2.77455950e+00   5.74951640e-01   1.58079230e-01
C     4.798808768324999e+00   2.520147900066397e+00   9.759201559999999e+00 -1.08188593e+00   2.65532130e-01   1.89948892e+00
C     5.952698390025001e+00   3.192412325932230e+00   1.010972279200000e+01  3.10551369e+00   2.75788479e+00   4.88256620e-01
C     6.121644190275000e+00   2.317093219505665e+00   6.794176480000000e+00  9.80067960e-01  -2.99696659e+00  -3.33807240e-01
C     7.393704654824999e+00   2.923298494056541e+00   6.758400456000000e+00  6.40346690e-01   1.68996525e+00  -7.81032920e-01
C     7.181991129225000e+00   2.416858364193273e+00   1.022664797600000e+01  1.20638782e+00   2.74669689e+00  -2.95644288e+00
C     8.427029561249999e+00   3.186987599311917e+00   9.825693456000000e+00  5.55342400e-02  -7.43471570e-01   2.19076513e+00
C     9.865928990550000e+00   4.618127634342223e+00   6.740747520000000e+00  1.40535970e+00  -2.46677099e+00   1.20716292e+00
C     3.756779170425000e+00   5.238658913513025e+00   6.992914776000000e+00 -1.63057627e+00  -6.20727860e-01  -2.01723361e+00
C     3.578322069075000e+00   4.617777513565016e+00   9.974916192000000e+00 -1.65961595e+00   1.56217969e+00  -1.47109800e-01
C     4.784401496549999e+00   5.399068985878168e+00   1.003916014400000e+01  1.60063743e+00  -1.96373377e+00   9.52810710e-01
C     4.932245664300000e+00   4.483427903454100e+00   6.722382488000000e+00  3.22511586e+00   1.39647471e+00   1.13019269e+00
C     6.301539545175000e+00   5.132679076998073e+00   6.755416751999999e+00 -4.98775146e+00   8.42804100e-02   8.13600700e-01
C     6.067553832525000e+00   4.751850523778959e+00   1.019394106400000e+01 -1.89189892e+00  -3.99240954e+00  -1.90448834e+00
C     7.322970444525001e+00   5.389504931232623e+00   1.004552807200000e+01 -3.09279657e+00  -1.38440900e-02   6.03940020e-01
C     7.447260169200000e+00   4.344451793422541e+00   6.830576607999999e+00  3.86842590e-01   2.07930276e+00  -5.15896320e-01
C     8.631783578400000e+00   5.204412977160198e+00   6.881218112000000e+00 -2.84754592e+00  -1.21568779e+00  -5.04758860e-01
C     8.475168644850001e+00   4.589752032871606e+00   1.002460025600000e+01  3.02458870e-01   9.46019180e-01  -4.84788480e-01
C     9.665835080550000e+00   5.340706855914831e+00   1.009529414400000e+01  2.26359280e+00  -2.16094482e+00  -3.38259330e-01
