72
Lattice="7.395 0 0 3.6975 6.40425786098592 0 0 0 13.6 " PBC="1 1 1" Properties=species:S:1:pos:R:3:force:R:3 Energy="-571.1958977"
C     1.101523748370000e+01   6.309371094694669e+00   1.316916138400000e+01  1.76198284e+00   1.83803920e-01  -3.10674900e-01
C     1.167105706875000e+00   6.313133596187418e-01   1.307017732000000e+01 -8.12409100e-02  -1.43292776e+00   2.74919630e-01
C     1.274421725025000e+00   7.950490990480038e-01   3.511646616000000e+00  8.19821970e-01   8.94986600e-01   5.14488730e-01
C     2.526035754075000e+00   1.553145822371544e+00   3.444521640000000e+00  1.59412405e+00  -4.85294129e+00   1.07497827e+00
C     6.098230621950000e+00   6.281221179271038e+00   1.313975424000000e+01  1.57686911e+00   1.81685731e+00   1.53498170e+00
C     3.664264170825000e+00   6.469535819941195e-01   1.325377732000000e+01 -4.62523270e-01  -2.00588469e+00  -2.27146838e+00
C     3.840580382700000e+00   8.681241788911693e-01   3.696331896000000e+00 -3.41396516e+00  -2.01791917e+00  -8.76037010e-01
C     5.022963752850000e+00   1.611629697276799e+00   3.844582368000000e+00 -1.54220220e-01  -1.12250322e+00  -1.69151179e+00
C     8.620400454899999e+00   6.371370843122485e+00   1.313406821600000e+01 -2.84451850e-01  -2.02973118e+00   1.25705896e+00
C     6.144698916224999e+00   6.733042852145611e-01   1.323877216800000e+01 -6.62030110e-01   8.35438540e-01   1.39461870e-01
C     6.202477936950000e+00   8.649793040264375e-01   3.821377368000000e+00  2.46390562e+00   1.30217750e-01  -1.27564113e+00
C     7.476023946075000e+00   1.569506267585857e+00   3.553289408000000e+00 -1.98134251e+00  -7.01502480e-01   1.10804562e+00
C     8.541064232700000e+00   2.059921983644725e+00   1.300285052000000e+01  3.85332328e+00  -1.67592826e+00   7.92373700e-01
C     2.441961185625000e+00   2.738410771767271e+00   1.288118464800000e+01 -2.70151880e-01  -1.82810030e-01   2.53924620e-01
C     2.550667796550000e+00   2.885772552998135e+00   3.531747280000000e+00 -1.22999885e+00   4.81687122e+00   7.31871360e-01
C     3.708893143725000e+00   3.651596589812972e+00   3.830138488000000e+00  2.82647101e+00   4.56214110e-01  -1.87196233e+00
C     3.682020416250000e+00   2.018587238309242e+00   1.293512129600000e+01  8.11289090e-01   1.66871841e+00   3.94956189e+00
C     4.892857269075000e+00   2.776938018542088e+00   1.342813720800000e+01 -3.25435400e-02   1.04652876e+00  -2.79059572e+00
C     5.045881523400000e+00   2.993107146220792e+00   3.663836736000000e+00 -1.57537763e+00   2.68609914e+00   1.84541982e+00
C     6.273788883300000e+00   3.794850295796961e+00   3.677440952000000e+00 -2.76006908e+00  -3.27008232e+00   2.27533490e-01
C     6.194658094200000e+00   2.163264034432301e+00   1.345751035200000e+01 -3.57155438e+00  -4.83142481e+00  -2.59511730e-01
C     7.435602321449999e+00   2.707704340648507e+00   1.345197841600000e+01 -4.32496490e-01   5.19321023e+00   1.72019200e-02
C     7.440732232949999e+00   3.020706423553619e+00   3.572713472000000e+00  2.30296573e+00  -4.98528070e-01  -5.60647080e-01
C     8.728023402524999e+00   3.673101959621695e+00   3.527236160000000e+00 -7.95697680e-01  -1.19758804e+00   8.65884380e-01
C     2.503287218100000e+00   4.152252201849351e+00   1.289185140000000e+01 -1.74807175e+00  -9.92069060e-01   1.22584177e+00
C     3.680629564650000e+00   4.848781592235781e+00   1.308484301600000e+01 -7.22991370e-01   3.71060892e+00  -2.86823900e-02
C     3.717414069450000e+00   5.103809899374187e+00   3.898050224000000e+00  1.97838340e-01  -6.39009320e-01  -1.24149980e+00
C     4.999685476050000e+00   5.765524975522712e+00   3.791759288000000e+00 -5.44241424e+00   4.55031484e+00  -5.92142770e-01
C     4.880501074500000e+00   4.252590911870902e+00   1.329228748800000e+01  2.29322622e+00  -4.17478645e+00   1.36568249e+00
C     6.142081714800000e+00   4.896912279841983e+00   1.343113913600000e+01  1.23933058e+00   3.33855010e-01  -2.95789480e-01
C     6.175053875250000e+00   5.197057046582201e+00   3.788202752000000e+00  4.98793078e+00  -4.31038480e+00  -1.29662453e+00
C     7.449922258274999e+00   5.742948877842377e+00   3.647608672000000e+00  1.43252861e+00   5.23298692e+00   1.32821188e+00
C     7.478330927249999e+00   4.186350391973350e+00   1.356168118400000e+01 -1.16783723e+00  -2.68317700e-02  -2.93988247e+00
C     8.671196820825001e+00   4.845809568290692e+00   1.304381426400000e+01 -1.98956933e+00   2.65181766e+00   2.73725646e+00
C     8.692801276350000e+00   5.057061891039959e+00   3.741606432000000e+00 -1.05600990e-01   1.11137881e+00  -1.37968112e+00
C     9.886193656949999e+00   5.857036184595196e+00   3.754371664000000e+00  8.87768800e-01  -1.24887003e+00   1.28856078e+00
C     6.833560507500000e-02   6.502838601238980e-02   7.267528424000000e+00 -3.38008989e+00   2.20081732e+00  -6.97800940e-01
C     1.263680968200000e+00   7.198284647365812e-01   6.952647216000000e+00 -4.75153520e-01   3.63640078e+00  -3.85758060e-01
C     1.210810267800000e+00   5.800792326961632e-01   1.015709308800000e+01 -4.93372828e+00   3.98864380e-01   7.56531360e-01
C     2.345323140750000e+00   1.312035056286755e+00   1.019173269600000e+01  4.10575018e+00   9.75070290e-01   4.99482350e-01
C     2.429603659950000e+00   4.349477342650441e-02   6.704621159999999e+00  3.78210187e+00   7.66444640e-01   5.15254240e-01
C     3.657292645500000e+00   8.572438571276582e-01   6.620230440000000e+00  8.75440040e-01  -1.19975857e+00   4.83166680e-01
C     3.631908938250000e+00   6.687137772230917e-01   1.056280312000000e+01  4.99416130e-01  -2.60396127e+00  -3.82215308e+00
C     4.895540359950000e+00   1.317887523289537e+00   1.022534944800000e+01 -3.06877905e+00  -8.89527210e-01   2.31652261e+00
C     4.899020779724999e+00   7.851536881007821e-02   6.839283871999999e+00 -1.30586703e+00   7.38101810e-01   9.14726950e-01
C     6.066249872174999e+00   7.484971890894498e-01   7.192104184000000e+00  4.37154210e+00   1.71913757e+00  -1.56590438e+00
C     6.080003056200000e+00   5.658451291765273e-01   1.041108777600000e+01 -9.51467820e-01  -7.43001680e-01  -1.41828132e+00
C     7.240494564150000e+00   1.252608794837400e+00   1.018576120800000e+01  4.78581236e+00  -1.31825220e-01  -4.34518180e-01
C     1.291046091750000e+00   2.233205574947147e+00   6.834021487999999e+00  3.58463790e-01  -2.29466873e+00  -1.36258760e-01
C     2.480709247800000e+00   3.049596158845236e+00   6.565860632000000e+00  9.87690960e-01  -2.38574599e+00   2.77016593e+00
C     2.366123944650000e+00   2.745123394643230e+00   1.000834186400000e+01  2.94079180e-01  -1.54298110e-01   4.94900470e-01
C     3.650343231225000e+00   3.432473626281500e+00   9.928693872000000e+00 -2.72429786e+00   5.07427370e-01   1.73825940e+00
C     3.742383213000000e+00   2.311435377899248e+00   6.579704208000000e+00 -3.21235208e+00  -2.79235067e+00   1.40814350e-01
C     4.948947160874999e+00   2.922491045225552e+00   6.708457584000000e+00  3.23194917e+00   8.12143390e-01   1.19485781e+00
C     4.823258080350000e+00   2.722513290353657e+00   1.012701723200000e+01  2.44815956e+00   2.99787040e-01  -6.90639250e-01
C     6.058804623149999e+00   3.428314252929166e+00   1.023977469600000e+01  8.04458310e-01   6.05989160e-01  -4.68489190e-01
C     6.199663991549999e+00   2.173595895552682e+00   6.964746728000001e+00 -2.58719303e+00  -1.47676510e+00   2.13825740e-01
C     7.435906551750000e+00   2.804289643223469e+00   6.993647543999999e+00  3.61785850e-01   4.40163769e+00  -1.01987756e+00
C     7.292736430725000e+00   2.638314142692829e+00   1.013396628800000e+01 -8.97961600e-01   3.38260703e+00   1.18157500e+00
C     8.516419914525001e+00   3.425696000188262e+00   1.018776843200000e+01  3.01868340e-01  -1.68483730e+00  -1.12661492e+00
C     2.540660697675000e+00   4.387848005320580e+00   7.010939264000000e+00 -2.35935679e+00   8.93722140e-01  -1.33148170e+00
C     3.734650964025000e+00   5.122067862149839e+00   7.167776503999999e+00  2.70147455e+00  -4.52592249e+00  -2.12686668e+00
C     3.629963831400000e+00   4.852771957223190e+00   1.012495574400000e+01 -2.62951390e-01   8.39870390e-01   6.21490680e-01
C     4.876999061325000e+00   5.603229105388115e+00   1.025408067200000e+01 -3.27469400e-01  -1.56265210e+00  -5.09374920e-01
C     5.025417931500000e+00   4.319931555183644e+00   6.824664007999999e+00 -1.38858662e+00   2.40089535e+00   1.29108633e+00
C     6.297316593450000e+00   5.033112272176389e+00   6.803924280000000e+00 -4.45267640e+00  -4.29829000e-02  -2.43610000e-04
C     6.089262668475000e+00   4.900134582184242e+00   1.035553694400000e+01  1.71200203e+00  -2.44157072e+00  -8.71636000e-02
C     7.405061526074999e+00   5.518660624176500e+00   1.054063280800000e+01 -6.40945772e+00   4.76449113e+00  -6.28472590e-01
C     7.456384859700000e+00   4.317531751678346e+00   6.855760544000000e+00  1.06548286e+00  -2.08025131e+00   2.94748950e-01
C     8.635562941050001e+00   5.069228956292702e+00   6.924201728000000e+00  1.26322180e+00  -7.52750970e-01   1.98097270e-01
C     8.519644171500000e+00   4.818793654806332e+00   1.040262000800000e+01  3.70372793e+00  -7.50884400e-01  -8.01807170e-01
C     9.771279313274999e+00   5.542822992486180e+00   1.038809316800000e+01  8.85503260e-01  -8.48769010e-01  -1.24894999e+00
