26
Lattice="8.88768389401873 1.33226762955019e-15 0 4.44384194700937 7.69696003302603 0 0 0 30 " PBC="1 1 1" Properties=species:S:1:pos:R:3:force:R:3 Energy="-204.93965964"
C     3.775990717798251e-01   4.313794345741629e-01   3.611843700000000e+00 -7.28667830e-01   7.04009810e-01   3.15264425e+00
C     7.304531695467292e+00   7.607376189785233e+00   3.806496300000000e+00 -3.99459283e+00  -1.50584668e+00   2.11025108e+00
C     4.185737205941523e+00   3.687202532707398e-01   3.983006700000000e+00  1.94657240e-01  -1.67611409e+00  -6.15432750e-01
C     9.628798302640760e+00   7.085196949250766e+00   3.997975500000000e+00 -2.79994850e-01  -3.00133938e+00   3.35876960e-01
C     1.096351840712908e+01   7.363273029093007e+00   3.839212200000000e+00  6.47590000e-02   4.73053240e+00  -4.55526790e-01
C     1.191108717885250e+01   6.390707173007893e+00   3.738757500000000e+00  4.20579901e+00  -1.98553304e+00   7.12485400e-01
C     4.428754661599823e+00   6.753761155213348e+00   3.734991300000000e+00 -1.40535670e-01   8.80270840e-01  -1.46876074e+00
C     5.472171193733951e+00   5.730156988078105e+00   3.712127400000000e+00 -1.56287662e+00   4.39321409e+00  -8.06476600e-02
C     6.780903088511234e+00   6.194801221479521e+00   3.836554500000000e+00  6.10177527e+00   5.45129560e-01   4.97520170e-01
C     7.945307883703492e+00   5.281203469515444e+00   4.017715500000000e+00 -2.41394449e+00  -1.69444595e+00  -1.35769855e+00
C     9.315052661782310e+00   5.620773949699768e+00   4.105449900000000e+00 -1.11643126e+00   3.80876547e+00  -1.12965140e+00
C     1.030870634086138e+01   4.689163540964683e+00   3.914896800000000e+00  3.07122500e-01  -4.68749645e+00   2.38273203e+00
C     1.170662680991004e+01   4.936652902252510e+00   3.864480300000000e+00 -3.59855085e+00   4.22581225e+00  -1.61450381e+00
C     3.771877141988772e+00   4.009254116106640e+00   3.567589200000000e+00  6.07562300e-02  -2.78053413e+00   2.21832692e+00
C     5.098016143337865e+00   4.433552963210005e+00   3.562282200000000e+00  3.04730533e+00  -1.93191177e+00   7.80374730e-01
C     6.248713285935156e+00   3.554219922150679e+00   3.687519300000000e+00 -1.55154599e+00  -1.74493522e+00  -8.09918950e-01
C     7.614421411300977e+00   3.885450977051300e+00   3.797850000000000e+00  8.50389100e-02   1.48844615e+00   6.87316680e-01
C     8.640152207958963e+00   2.880051120991810e+00   3.801777300000000e+00 -4.15042329e+00  -1.79704500e-01   7.21770090e-01
C     9.904092931028842e+00   3.215680295823172e+00   4.097580000000001e+00  3.77595638e+00   2.83164332e+00  -2.88237400e+00
C     2.011118754677297e+00   2.237237887724754e+00   3.864553500000000e+00  2.42147345e+00  -1.75472416e+00   2.69145263e+00
C     3.428218401243648e+00   2.588276453505777e+00   3.874917300000000e+00 -4.55843380e-01   3.00762733e+00  -1.91115788e+00
C     4.522643306617707e+00   1.725944226851914e+00   3.888160800000000e+00  2.93189210e-01   2.08810280e-01  -4.71311180e-01
C     5.919196050123558e+00   2.175130424516281e+00   3.708891300000000e+00 -2.53554293e+00  -4.11344370e-01   7.57188450e-01
C     6.893594473153437e+00   1.205550450135605e+00   3.710297400000000e+00 -7.94782060e-01  -4.43822817e+00   2.80855260e-01
C     8.211951907251988e+00   1.538916102961345e+00   3.705596100000000e+00  3.74260088e+00  -2.30691076e+00  -7.64811190e-01
C     1.752248518216422e+00   7.756957063737847e-01   3.991254900000000e+00 -9.76701370e-01   3.27480718e+00  -3.76699974e+00
