26
Lattice="8.88768389401873 1.33226762955019e-15 0 4.44384194700937 7.69696003302603 0 0 0 30 " PBC="1 1 1" Properties=species:S:1:pos:R:3:force:R:3 Energy="-206.66548104"
C     1.206616579749430e+01   6.195996251493779e+00  -4.212276000000017e-01  8.13882770e-01  -3.54971270e-01   1.07968532e+00
C     8.372821610393080e+00   5.949803520092608e+00  -7.358940000000302e-02 -4.41399300e-02  -1.62121994e+00  -1.63243921e+00
C     9.760610074929549e+00   5.521237863196612e+00  -2.422320000000155e-02 -2.72496137e+00   3.38213308e+00   9.37547300e-01
C     1.001063270913929e+01   4.188049879427521e+00  -2.976659999999853e-02  2.21084411e+00  -2.65126988e+00  -2.86329245e+00
C     5.994950359172044e+00   5.402947363884358e+00  -4.904210999999989e-01 -7.23428010e-01  -2.51576897e+00  -3.38303850e-01
C     7.395265036503742e+00   4.970533842730165e+00  -3.860316000000026e-01 -1.94726518e+00   2.71780770e-01   1.83059874e+00
C     7.668364941835639e+00   3.569605914341848e+00  -2.646300000000004e-01  6.11148950e-01   4.74256710e-01  -1.96315906e+00
C     9.050318730797020e+00   3.174686132764192e+00  -3.360813000000000e-01 -1.25151072e+00   1.41972952e+00   2.17581923e+00
C     9.402521955723627e+00   1.832291892072819e+00  -4.017657000000021e-01 -1.23699418e+00  -1.07572182e+00  -2.74478430e-01
C     3.498290457834931e+00   4.832466389468827e+00  -5.055176999999986e-01  1.47282036e+00  -2.80110375e+00   4.14474780e-01
C     4.931700470279451e+00   4.370978217558111e+00  -5.379246000000002e-01 -1.06069298e+00   1.55598560e+00  -3.22165000e-02
C     5.207656388382603e+00   2.957154417487531e+00  -4.772441999999977e-01  2.82587464e+00   2.85718638e+00   2.85608790e-01
C     6.658784754195530e+00   2.619680974063380e+00  -4.225838999999993e-01 -3.14741744e+00  -1.25177543e+00   2.13533380e-01
C     6.932137736328007e+00   1.221542347020335e+00  -4.185027000000012e-01  2.05867507e+00   5.54621200e-01   1.59048000e-03
C     8.309975505599089e+00   8.796085152587997e-01  -5.604647999999983e-01  1.81941469e+00  -2.03581104e+00   1.70982365e+00
C     2.466644595147059e+00   3.787157410805786e+00  -3.764322000000000e-01  8.86051130e-01   2.65345726e+00   9.33165490e-01
C     2.804323389301417e+00   2.436247561415623e+00  -4.113122999999987e-01  3.16046574e+00   9.62353040e-01   7.83291110e-01
C     4.182681887946686e+00   2.055938688154114e+00  -3.773232000000029e-01  4.05214240e-01  -4.29315745e+00  -5.29541090e-01
C     4.552923867060930e+00   5.527688839336955e-01  -2.836271999999980e-01  8.65201860e-01   3.56977007e+00   6.96899990e-01
C     5.983207236822976e+00   2.015138796366291e-01  -1.837619999999980e-01 -3.72989677e+00   1.75809697e+00  -6.86879250e-01
C     1.072631438912760e+01   6.557561102842230e+00  -5.906760000000233e-02  1.90112192e+00  -1.28695419e+00  -1.60309077e+00
C     1.884942172405171e+00   1.468445969649878e+00  -2.567190000000004e-01 -2.24013103e+00  -4.45110681e+00  -1.71469100e+00
C     2.245029350567052e+00   1.120269441486410e-02  -3.690159000000008e-01 -4.41706011e+00   2.51755792e+00   1.93391110e-01
C     7.962534260553422e+00   7.288286473575136e+00  -2.441756999999996e-01  3.75472454e+00   3.50105150e-01   5.50636330e-01
C     4.245962244989575e+00   7.147736596764923e+00  -4.844559000000004e-01 -1.25053983e+00   1.84676314e+00  -7.12438910e-01
C     5.609123248564295e+00   6.763050000516752e+00  -5.049971999999983e-01  9.88597520e-01   1.65063750e-01   5.44464830e-01
