64
Lattice="7.10842262195238 0 0 0 7.10842262195238 0 0 0 7.10842262195238 " PBC="1 1 1" Properties=species:S:1:pos:R:3:force:R:3 Energy="-512.19102713"
C     3.420892843761900e-02   6.856215785442399e-03   7.083242809974305e+00 -1.13377692e+00  -5.13016550e-01   1.49616373e+00
C     1.759310145476187e+00   1.736491966697535e+00   7.101763591858036e+00  4.42167640e-01   1.50079548e+00   9.51144560e-01
C     7.100889540212681e+00   1.745059819565647e+00   1.821420130286889e+00  1.74263820e-01  -9.81628700e-02  -5.49222820e-01
C     1.786724488152479e+00   7.048618891824130e+00   1.774894224722918e+00  2.14063910e-01   2.24493968e+00  -2.84836370e-01
C     9.021896965384343e-01   8.262239743568278e-01   9.272765994804858e-01 -7.91961380e-01   1.76727216e+00  -1.32267475e+00
C     2.611507585244233e+00   2.675269780724502e+00   9.111276138881435e-01  1.79800309e+00  -1.63670462e+00  -1.37038660e+00
C     9.062576335511815e-01   2.625524541640158e+00   2.708128179948547e+00 -1.89960870e+00   1.70780089e+00  -1.57108399e+00
C     2.645801246079482e+00   9.204169005679597e-01   2.648009690819064e+00  8.30125380e-01  -1.95334156e+00   6.37666330e-01
C     3.620234410378786e+00   7.099156151356794e+00   7.053758850052200e+00 -2.72136284e+00   7.70048090e-01   4.58060220e-01
C     5.359772336168991e+00   1.768613862253922e+00   7.082847368423954e+00 -1.75397953e+00   3.30262300e-01   1.21898905e+00
C     3.523131011610122e+00   1.778049227018579e+00   1.794859082661902e+00  3.98620690e-01   1.66705330e-01  -1.05259463e+00
C     5.314370272221241e+00   7.097137643669619e+00   1.742115582000669e+00  1.54671894e+00  -7.85627220e-01   6.96475130e-01
C     4.445959231299238e+00   8.816358347011566e-01   8.687528849657996e-01 -3.34569260e-01   4.93406100e-01   3.68104700e-02
C     6.178714939983474e+00   2.623071993667806e+00   9.460997025782458e-01  9.95140550e-01   1.43925135e+00  -1.24974652e+00
C     4.401141195353946e+00   2.645222122888631e+00   2.728373891665248e+00  2.52170080e-01   2.99713660e-01  -1.85663259e+00
C     6.215742713411054e+00   8.367461458558566e-01   2.679498865678045e+00 -4.11475770e-01   1.59924079e+00  -2.92156330e-01
C     7.049984561977884e+00   3.609041630289787e+00   4.349579825374420e-02  1.46018246e+00  -2.20497175e+00  -7.20629700e-02
C     1.744973381146588e+00   5.319175779165040e+00   7.089167893480753e+00  1.08118427e+00   1.41195908e+00   1.90098290e-01
C     8.679312934793799e-03   5.342030210899054e+00   1.819989062645031e+00  3.25254930e-01  -1.45169140e-01  -1.34189330e+00
C     1.762015184620002e+00   3.508225360218244e+00   1.774518118082094e+00 -3.86583740e-01   1.40767889e+00   7.36382090e-01
C     9.029039508432918e-01   4.452539498118572e+00   8.969473059404104e-01 -1.79359310e+00  -3.78835040e-01   6.64705760e-01
C     2.628876447242393e+00   6.229245801935780e+00   8.322116119823324e-01  2.40861245e+00  -1.18876405e+00   8.56107450e-01
C     9.270892925444487e-01   6.220406122986678e+00   2.660484474927580e+00 -7.80363980e-01  -7.81747050e-01   1.54539729e+00
C     2.680442650949302e+00   4.404633279050248e+00   2.648263532590824e+00 -1.31941340e+00   1.88933618e+00   6.23248000e-03
C     3.523067817733029e+00   3.582295052834417e+00   4.034754895957240e-02 -2.93222310e-01  -1.96108374e+00  -1.64251630e+00
C     5.312621813509399e+00   5.294097761751264e+00   3.624662886586819e-02  6.76554070e-01   1.21441176e+00  -1.00069748e+00
C     3.526829879320438e+00   5.316787349164720e+00   1.741737556085738e+00  1.74777310e-01   2.91808000e-02   8.52525820e-01
C     5.270413421676364e+00   3.514885667876279e+00   1.803149849216287e+00  1.08312273e+00   2.63036920e-01   6.52251640e-01
C     4.383080186245278e+00   4.394349097540537e+00   9.306877893273713e-01  1.55330614e+00   1.39854211e+00  -1.34556840e+00
C     6.262294777970268e+00   6.200371886842923e+00   8.820298545669832e-01 -1.34578720e+00   2.30843990e-01  -7.33993300e-02
C     4.472113463897682e+00   6.167292913264980e+00   2.620789905669881e+00 -1.79625324e+00   1.89265714e+00   4.53525680e-01
C     6.206136959756195e+00   4.466706300063326e+00   2.666532178724224e+00  9.22794880e-01  -1.80901796e+00   8.17523000e-03
C     4.287949801259019e-02   4.444185822023999e-02   3.576306420029745e+00 -1.16743438e+00  -3.06068969e+00  -1.17614646e+00
C     1.773189411725963e+00   1.799176454224385e+00   3.566031408385215e+00 -1.97166960e-01  -1.46180220e+00  -8.06872860e-01
C     7.107258189290618e+00   1.777074804445829e+00   5.364464037266643e+00 -1.63408190e-01   2.17750590e-01  -1.14041271e+00
C     1.791670670779927e+00   8.887276946964520e-02   5.312512272716826e+00  1.06050790e-01  -3.99926580e+00  -3.31550220e-01
C     9.100625589269890e-01   8.548763199166191e-01   4.425851849486723e+00 -5.26163630e-01   3.65363118e+00   1.29255782e+00
C     2.630302396819965e+00   2.680056876853715e+00   4.382718225365467e+00  1.36760955e+00   3.15271030e-01   2.78493377e+00
C     8.497874712471871e-01   2.673312618724538e+00   6.276926328585918e+00  5.15600450e-01   4.18670100e-02  -1.36142023e+00
C     2.663930069539947e+00   9.058992268826812e-01   6.149729280487031e+00  1.28977304e+00   5.25595600e-01   2.21431492e+00
C     3.568890984636788e+00   1.709596965377860e-02   3.550613737312018e+00 -1.68934760e-01  -8.61390690e-01  -1.30476954e+00
C     5.280614150304516e+00   1.732591219784810e+00   3.553830938305604e+00  2.24593904e+00   1.78514837e+00  -6.93328200e-02
C     3.557255420902789e+00   1.748248942289884e+00   5.276848676674250e+00  1.87915110e-01   2.56816694e+00   6.39217080e-01
C     5.380119129655348e+00   2.326202868704520e-02   5.279437422024001e+00 -1.14374016e+00  -6.42791030e-01   1.68118658e+00
C     4.464810625919025e+00   8.809675008064242e-01   4.409212595986278e+00 -1.04435640e+00  -5.72122860e-01   1.00757079e+00
C     6.208490203064547e+00   2.649716636342804e+00   4.441103609975968e+00  6.38967070e-01   6.48843790e-01   5.32200120e-01
C     4.452364986343251e+00   2.693241792381969e+00   6.197523186477959e+00 -5.02934570e-01  -5.82922350e-01   8.29641830e-01
C     6.206905451325643e+00   8.810266428826226e-01   6.223135686188533e+00  1.67966318e+00   4.66357000e-01  -6.12282700e-01
C     1.482475754246240e-02   3.573610408582659e+00   3.557403844767094e+00 -4.62356880e-01  -1.01914020e+00   5.58415250e-01
C     1.826075791681859e+00   5.332047853013788e+00   3.570324966731921e+00 -1.38826831e+00  -1.82850200e-02  -3.94680260e-01
C     7.099917676672075e+00   5.370910097066911e+00   5.386601513495204e+00  1.09757986e+00  -3.22354360e-01  -1.73681331e+00
C     1.781783565757770e+00   3.589426719996385e+00   5.318403804468508e+00 -5.49602700e-02  -2.20932105e+00   1.87895577e+00
C     9.242886451163951e-01   4.433664716788364e+00   4.490399099161143e+00 -1.74564605e+00   1.85532803e+00  -1.53433549e+00
C     2.673816748056748e+00   6.263832045446068e+00   4.428936478398445e+00  9.03744190e-01  -7.85718410e-01   4.46058860e-01
C     9.308760203583490e-01   6.284966452158721e+00   6.217082864327603e+00 -1.37233947e+00  -1.63295151e+00  -4.04079030e-01
C     2.643101822589537e+00   4.447829883795917e+00   6.242445858404215e+00  1.41328695e+00   4.77747290e-01  -1.29643040e+00
C     3.512558441394717e+00   3.589616088374981e+00   3.550667619155477e+00  1.83029449e+00  -1.67478656e+00   3.02691440e-01
C     5.333930731997373e+00   5.309405536610755e+00   3.526260068163219e+00  5.06166840e-01   1.51141317e+00   5.79499140e-01
C     3.596171902220503e+00   5.361343297568011e+00   5.314927003880840e+00 -1.07467519e+00   6.13599800e-02   3.48584640e-01
C     5.380838502024492e+00   3.595661588560613e+00   5.368461814148131e+00 -2.44617434e+00  -1.48401802e+00  -2.73839414e+00
C     4.455680567905898e+00   4.474813669314115e+00   4.401373356436716e+00 -5.34900050e-01  -9.20494210e-01   1.82318001e+00
C     6.239061893815964e+00   6.235728470112542e+00   4.458123093002355e+00  6.49059820e-01  -4.89438050e-01  -1.23339373e+00
C     4.503745589135551e+00   6.245416326048661e+00   6.182281448864607e+00 -1.03314334e+00  -1.21912565e+00   8.73641900e-01
C     6.196841417664475e+00   4.466787549333874e+00   6.219240057340094e+00  1.01785310e+00   2.00157570e-01   1.90689151e+00
