64
Lattice="9.86 0 0 4.93 8.53901048131456 0 0 0 30 " PBC="1 1 1" Properties=species:S:1:pos:R:3:force:R:3 Energy="-513.6460109"
C     4.933056254899999e+00   8.404488702090282e+00  -2.904477000000014e-01  2.09160740e-01  -5.40490960e-01   3.70685010e-01
C     1.238123700300000e+00   5.651287061972552e-01  -2.939397000000028e-01  8.11871790e-01  -1.86779086e+00  -5.74407300e-02
C     1.207403982900000e+00   8.799015664006569e-01   3.508066200000000e+00 -9.88072780e-01  -1.30841388e+00   2.80136910e-01
C     2.396365871100000e+00   1.611313241548410e+00   3.604325700000000e+00  2.25381038e+00  -1.69398879e+00  -5.55845820e-01
C     7.405244392099999e+00   8.361748563714947e+00  -2.710839000000007e-01  1.08681997e+00   2.42164649e+00   1.61183560e-01
C     3.711059077600000e+00   6.159919198521089e-01  -1.377176999999996e-01  1.09063970e-01  -3.01524617e+00  -3.35248950e-01
C     3.652635619600000e+00   8.844271565649520e-01   3.481257000000000e+00 -6.61827910e-01  -2.24237141e+00   3.55606800e-02
C     4.926467457799999e+00   1.464894914237955e+00   3.533216100000000e+00 -5.38710340e-01   3.67286820e+00  -4.47629240e-01
C     9.909144014799999e+00   8.424295022288746e+00  -1.111940999999987e-01 -2.09218789e+00  -8.02889310e-01  -4.50246000e-02
C     6.156843958900000e+00   6.025611664384312e-01  -1.719378000000020e-01  1.65922597e+00  -6.54548180e-01   1.48368360e-01
C     6.180187558199999e+00   8.283357629635089e-01   3.415243500000000e+00 -5.20158320e-01   8.08499890e-01   3.78501400e-01
C     7.401252226000000e+00   1.600961142973192e+00   3.465184200000000e+00 -1.35482500e+00  -8.96973020e-01  -5.27299600e-01
C     1.231819295180000e+01   8.441575930137750e+00  -1.135845000000018e-01  1.58207348e+00   6.95100370e-01  -2.77920370e-01
C     8.655245694900000e+00   5.926080958229432e-01  -2.392839000000002e-01 -1.34576084e+00   2.26341250e-01  -9.33642000e-03
C     8.605357545899999e+00   8.554854613945639e-01   3.478902900000000e+00  6.83018790e-01  -1.03872216e+00   3.38420330e-01
C     9.830487393100000e+00   1.540117192308895e+00   3.592472400000000e+00  3.41462090e-01   2.44506540e+00  -3.77808020e-01
C     1.270397797400000e+00   1.942861756350715e+00  -1.773413999999995e-01 -5.05184050e-01   2.20237799e+00   1.38257097e+00
C     2.465020952500000e+00   2.668174272482919e+00   8.307330000000000e-02  1.39171914e+00   1.74146201e+00  -8.14658660e-01
C     2.454361799500000e+00   2.987478443987637e+00   3.711493500000000e+00 -1.01702661e+00   1.46231886e+00   1.22507830e-01
C     3.708537974200000e+00   3.642510122023573e+00   3.734669400000000e+00 -1.02656692e+00   1.65301356e+00  -3.99326910e-01
C     3.719253772900000e+00   2.005494629710572e+00  -2.129820000000038e-02  3.71929910e-01  -7.31264900e-02  -1.08203540e-01
C     5.002484606800000e+00   2.678325362751438e+00  -8.994180000000185e-02 -2.19441352e+00   6.26958320e-01   3.05776690e-01
C     4.883964843199999e+00   2.931209524358315e+00   3.578402100000000e+00  2.28819538e+00   5.04535600e-02  -4.35358910e-01
C     6.103523839699999e+00   3.735247789171298e+00   3.373531500000000e+00 -2.38705640e-01  -2.81220579e+00   1.14927740e+00
C     6.216529891299999e+00   1.995126904746175e+00  -2.583401999999992e-01 -1.60964255e+00   3.99885160e-01   5.43380710e-01
C     7.399260900400000e+00   2.730912175671680e+00  -2.761856999999992e-01  1.68887544e+00  -1.62212710e+00   4.65759500e-02
C     7.347006499300000e+00   3.045634399542935e+00   3.412652700000000e+00 -1.58214850e-01  -2.65899370e+00  -6.64238100e-02
C     8.573781240999999e+00   3.671296321813120e+00   3.474043200000000e+00  2.25923166e+00   2.26819884e+00   8.52805770e-01
C     8.634504642600000e+00   2.021989692425102e+00  -2.455116000000004e-01  8.86329530e-01  -1.29945761e+00   2.30189000e-02
C     9.892221198200000e+00   2.668927498597360e+00  -1.002021000000006e-01 -1.28320206e+00  -2.86517260e-01  -4.68763420e-01
C     9.853876003299998e+00   3.014328508540950e+00   3.646318200000000e+00 -7.09174640e-01  -1.19441279e+00  -7.83131420e-01
C     1.109654373390000e+01   3.743120415273439e+00   3.670523400000000e+00 -9.58580740e-01   5.06732780e-01   5.13800170e-01
C     2.500075076600000e+00   4.151096660256146e+00   1.929099000000000e-01 -1.84397930e-01  -2.43965777e+00   1.39345360e-01
C     3.718927949199999e+00   4.875960109827206e+00   1.517193000000000e-01  8.26278220e-01  -1.01232289e+00  -2.89923040e-01
C     3.717360899400000e+00   5.096992054541587e+00   3.701126400000000e+00 -2.23093754e+00   4.99590750e-01  -4.38518080e-01
C     4.881029028200000e+00   5.822721018214901e+00   3.546079500000000e+00  2.29564925e+00  -1.52643891e+00  -3.62797730e-01
C     4.961293125699999e+00   4.080889343040109e+00  -2.895600000002219e-03 -8.91386900e-02   2.47437510e+00  -6.06361240e-01
C     6.186975576600000e+00   4.806039788753403e+00  -2.248820999999985e-01 -4.53829460e-01   1.16918198e+00   4.91354390e-01
C     6.128055371799999e+00   5.103306482011337e+00   3.408864000000000e+00 -1.52115740e-01   2.05310267e+00  -1.30004590e-01
C     7.379163854000000e+00   5.825405683109812e+00   3.339731400000000e+00 -1.00662528e+00   1.04498360e-01   7.53887210e-01
C     7.425211631600000e+00   4.104613019686379e+00  -2.744852999999985e-01 -1.13060181e+00   1.67323371e+00   1.29455640e-01
C     8.645751007900000e+00   4.804927241077964e+00  -1.693847999999996e-01  1.70034200e-02   1.10118735e+00  -9.27164000e-03
C     8.590443359199998e+00   5.109071680327014e+00   3.493521600000000e+00  6.74030860e-01   7.60666780e-01  -8.41270010e-01
C     9.829390221600001e+00   5.874297324634940e+00   3.534067500000000e+00 -3.00768650e-01  -9.94213970e-01  -2.46399080e-01
C     9.794072046699998e+00   4.053991118467690e+00   4.542780000000000e-02  4.51074273e+00   1.54857753e+00   5.67148400e-02
C     1.111925658900000e+01   4.778134985625601e+00   2.232843000000000e-01 -2.56618460e+00   1.28780123e+00  -7.37556960e-01
C     1.107605539340000e+01   5.212496175260774e+00   3.653868300000000e+00  5.03114710e-01  -2.03361634e+00  -2.06381770e-01
C     1.233455631200000e+01   5.905406989176094e+00   3.624594000000000e+00 -5.22204270e-01  -3.58667427e+00   2.86265730e-01
C     3.734360328200000e+00   6.325270134477694e+00   7.260780000000000e-02 -2.03051910e-01  -1.49561842e+00  -1.54866730e-01
C     4.944017616900000e+00   6.960335215088455e+00  -1.754162999999984e-01  1.54522736e+00   1.50326055e+00  -1.38388470e-01
C     4.910670012299999e+00   7.203384998325515e+00   3.471232500000000e+00  2.50147580e-01   2.46000223e+00   4.21041800e-02
C     6.114975490199999e+00   7.990303742587566e+00   3.411014100000000e+00  7.44151040e-01  -9.61959860e-01   1.66226250e-01
C     6.189676230600000e+00   6.260436331166617e+00  -2.576931000000009e-01  4.03633730e-01  -9.26544990e-01  -1.80221560e-01
C     7.460356270499999e+00   6.969109902257703e+00  -3.370131000000001e-01 -9.10059500e-01  -1.21382631e+00   3.84489880e-01
C     7.343739979900000e+00   7.269817475178659e+00   3.364904100000000e+00 -6.26415200e-02  -6.80886420e-01  -3.55935220e-01
C     8.555425865000000e+00   7.970150482393299e+00   3.336646800000000e+00  1.19999623e+00   1.34631211e+00   7.11027770e-01
C     8.705869449199998e+00   6.249779475307368e+00  -2.423552999999998e-01 -1.17997944e+00  -2.29059330e-01   6.69740370e-01
C     9.920521419499998e+00   6.960051890720729e+00  -4.659450000000120e-02 -6.73712710e-01   2.59253960e-01  -1.92775440e-01
C     9.823709777000001e+00   7.278114233931341e+00   3.384284100000000e+00 -1.07722369e+00   1.84921930e-01   3.23843130e-01
C     1.105215766210000e+01   7.971978769927173e+00   3.412699200000000e+00  1.29766982e+00  -3.82564450e-01  -1.89863180e-01
C     1.108892742620000e+01   6.196800380245675e+00   1.677294000000000e-01  2.59590597e+00   2.82814416e+00  -5.35904060e-01
C     1.240729225020000e+01   7.087840829647178e+00   8.360370000000000e-02 -3.33282249e+00  -4.59947149e+00   4.36181730e-01
C     1.229601638210000e+01   7.267015142719332e+00   3.467663400000000e+00  1.20394647e+00   7.87388800e-01   3.05085530e-01
C     1.357632900110000e+01   7.911472024786730e+00   3.477777000000000e+00 -2.41960928e+00   2.92367584e+00  -1.74270840e-01
