64
Lattice="9.86 0 0 4.93 8.53901048131456 0 0 0 30 " PBC="1 1 1" Properties=species:S:1:pos:R:3:force:R:3 Energy="-508.83069855"
C     5.058865861599999e+00   8.496318330863563e+00  -4.575491999999990e-01 -6.61821240e-01  -8.64526000e-03   1.04466342e+00
C     1.379480998700000e+00   5.729226026227704e-01  -2.750040000000027e-01 -1.69821200e-02   4.02949945e+00  -8.74127210e-01
C     1.074842149600000e+00   8.792991392112928e-01   3.409292400000000e+00  9.90949550e-01  -2.18328520e+00   9.21821240e-01
C     2.340174026900000e+00   1.493216506467286e+00   3.671702700000000e+00  1.33426200e+00  -1.66216333e+00  -3.29639880e-01
C     7.580845963499999e+00   8.531074238269783e+00  -5.790246000000003e-01 -2.09459098e+00  -3.93582249e+00   9.46861750e-01
C     3.864144895300000e+00   6.092414051171449e-01  -5.873865000000009e-01  2.41813156e+00   3.62493849e+00   2.13019877e+00
C     3.640656114000000e+00   7.053787938973777e-01   3.682777800000000e+00 -2.81581547e+00   4.61941551e+00   6.70118100e-02
C     4.786811551700000e+00   1.554938011238612e+00   3.756139500000000e+00  1.01341484e+00  -2.49901228e+00   9.31773400e-02
C     1.008419342620000e+01   8.435161425465173e+00  -4.643729999999984e-01 -1.86829866e+00  -4.05723590e-01  -6.14084920e-01
C     6.378615769100000e+00   6.305730487576520e-01  -3.512853000000007e-01 -3.71939771e+00  -6.13938290e-01  -5.35033000e-01
C     6.025477305500000e+00   8.386371398164760e-01   3.594621000000000e+00  1.31857320e-01  -2.84279592e+00   6.82052070e-01
C     7.280185723000000e+00   1.449930810712384e+00   3.409127700000000e+00 -5.72469960e-01   5.90815630e-01   1.06421291e+00
C     1.247900191030000e+01   8.431438331505790e+00  -3.498342000000001e-01  9.57648440e-01   3.30117884e+00   5.38380350e-01
C     8.737682788499999e+00   7.258096573223496e-01  -3.356837999999982e-01  1.37606233e+00  -5.71057078e+00  -4.62388770e-01
C     8.498927473399998e+00   6.618771465674368e-01   3.312052500000000e+00 -5.10028200e-02   2.87224945e+00   9.32578270e-01
C     9.675865288799999e+00   1.529355221230637e+00   3.351731700000000e+00  1.15480953e+00  -1.60432710e+00   5.98066240e-01
C     1.303896062800000e+00   2.037645114239135e+00   8.463300000000000e-03  3.79075090e-01  -1.59654510e-01  -3.48984920e-01
C     2.538106674200000e+00   2.810055140404512e+00   1.775211000000000e-01  1.76670533e+00  -3.33919737e+00  -2.58630238e+00
C     2.386159390700000e+00   2.853606740945761e+00   3.907098900000000e+00 -2.36668489e+00   3.76876887e+00   2.73926700e-02
C     3.563954582400000e+00   3.696075334764613e+00   3.925467900000000e+00  6.46795710e-01  -2.36977096e+00   3.05300730e-01
C     3.837457819300000e+00   2.148883572273038e+00  -2.561838000000023e-01 -3.32896646e+00  -2.67016151e+00   4.84721480e-01
C     4.973889374300000e+00   2.899603828698377e+00  -3.458211000000020e-01  3.60036411e+00  -4.77493160e+00   1.40387520e-01
C     4.797285238100000e+00   2.943151757465119e+00   3.927435900000000e+00  2.27794190e-01   1.10476037e+00  -1.89993626e+00
C     6.048924927800000e+00   3.603464301142306e+00   3.669007800000000e+00 -4.82691210e-01   1.52531068e+00   1.29783962e+00
C     6.272836210099999e+00   2.028871878701668e+00  -3.544964999999998e-01 -2.67939894e+00   1.26482524e+00  -6.96368140e-01
C     7.438628675900000e+00   2.690595835421094e+00  -3.713559000000011e-01  1.79901341e+00   5.02235533e+00   3.10111930e-01
C     7.267095882800000e+00   2.907317031474856e+00   3.584797800000000e+00  1.59691061e+00  -1.35388541e+00  -2.00456353e+00
C     8.552093431499999e+00   3.608323083495530e+00   3.486684900000000e+00 -6.31623031e+00   2.97741724e+00   9.44077740e-01
C     8.682803063800000e+00   2.065238414264626e+00  -2.675400000000003e-01  8.38214530e-01   1.47733782e+00  -3.17089800e-02
C     9.904019624900000e+00   2.762641003862740e+00  -8.923949999999792e-02  1.97111812e+00  -2.49427020e-01   5.30225670e-01
C     9.700026725799999e+00   2.940450953840400e+00   3.605060100000000e+00  3.67157731e+00  -1.54851355e+00   4.76173400e-02
C     1.094806135300000e+01   3.601523725620621e+00   3.949993800000001e+00  8.73180010e-01   4.06885260e-01  -6.57845760e-01
C     2.611859622099999e+00   4.191361254103223e+00   2.022825000000000e-01  1.38309180e-01   1.66371419e+00   3.24312320e-01
C     3.865631142400000e+00   4.922102019197563e+00   4.875090000000000e-02 -1.17790178e+00   1.87646726e+00  -3.01959600e-02
C     3.545527869299999e+00   5.092514624396399e+00   3.832978200000000e+00  5.23720280e-01  -9.14872070e-01   9.85340500e-01
C     4.849278546400000e+00   5.764022152373284e+00   3.713057700000000e+00 -3.26079976e+00  -1.18919210e+00   1.51746550e-01
C     5.044074924899999e+00   4.249744176557079e+00  -2.616768000000000e-01  1.78565024e+00   2.48988652e+00   3.61303000e-02
C     6.349047157399999e+00   4.991611443087069e+00  -4.711557000000006e-01 -3.25158321e+00  -2.98577770e+00   1.26726571e+00
C     6.022752593100000e+00   5.085277129893761e+00   3.672963900000000e+00 -9.68478000e-02  -4.03403820e+00  -6.45543040e-01
C     7.160928382099999e+00   5.799508999076592e+00   3.497985000000000e+00  4.33638524e+00  -5.41460760e-01   1.02897207e+00
C     7.490384111699999e+00   4.183852389847530e+00  -4.278921000000011e-01  2.07688878e+00   3.21714940e-01   1.81249180e-01
C     8.798593185000000e+00   4.913411868232068e+00  -3.342549000000012e-01 -2.47794991e+00  -1.13964863e+00  -8.13442600e-02
C     8.405970400699999e+00   5.046233529155218e+00   3.574262100000000e+00  2.46628040e+00  -1.06918328e+00   1.62402400e-02
C     9.696735063399998e+00   5.654398677391463e+00   3.781638600000000e+00 -1.99230157e+00   4.30542395e+00   7.33714330e-01
C     9.967740811599999e+00   4.176556232342895e+00  -5.041559999999734e-02  1.47952692e+00   1.32297979e+00   3.76637200e-02
C     1.125480324150000e+01   4.916627744968940e+00   1.321941000000000e-01 -1.37523234e+00  -1.38489810e+00  -6.41733170e-01
C     1.093254097350000e+01   5.119106981613425e+00   4.086776400000000e+00 -7.54085730e-01  -6.66949892e+00  -1.43645897e+00
C     1.214470674480000e+01   5.731233376811342e+00   3.969172200000000e+00  2.56123990e+00   2.98049761e+00  -6.75980040e-01
C     3.859427920600000e+00   6.408058915125067e+00  -2.228399999999908e-03 -1.08965858e+00  -2.21727245e+00  -1.90011051e+00
C     5.024970533999999e+00   7.058256915498588e+00  -4.548243000000021e-01 -3.86259090e-01   1.19203005e+00   1.62869661e+00
C     4.884011776800000e+00   7.104956593033499e+00   3.541369200000000e+00 -1.33372933e+00   4.97157498e+00   5.72283400e-02
C     6.081067541800000e+00   7.959829721986543e+00   3.465217500000000e+00 -1.90813324e+00  -1.18187353e+00   2.13066700e-02
C     6.248559657600000e+00   6.378648513669432e+00  -4.495977000000018e-01  2.55055182e+00  -1.48552800e-02  -1.06725610e+00
C     7.510226770099999e+00   7.031036172500341e+00  -5.743985999999985e-01  1.32712658e+00   2.22296586e+00   7.90608000e-02
C     7.254297208399999e+00   7.197270981431731e+00   3.579444600000000e+00  8.99592370e-01   1.87286368e+00  -1.12880334e+00
C     8.541242107099999e+00   7.891681330977444e+00   3.599498400000000e+00 -6.22514960e-01  -3.23624712e+00   9.10626950e-01
C     8.768957328099999e+00   6.333071801402746e+00  -4.734455999999980e-01  2.38629720e-01  -5.51601810e-01  -5.38328200e-02
C     1.005971193360000e+01   6.980494879540583e+00  -4.340778000000007e-01 -7.73676370e-01   1.76771001e+00   7.23396440e-01
C     9.707173401700000e+00   7.106237529995604e+00   3.827902800000000e+00  1.60681709e+00   1.33271912e+00  -1.47217117e+00
C     1.097519227690000e+01   7.869058759732570e+00   3.768849000000000e+00 -1.19708005e+00   9.95699890e-01  -5.04742190e-01
C     1.128305278240000e+01   6.294608597206530e+00  -1.071741000000017e-01 -1.91292026e+00   1.08094640e+00  -3.59427220e-01
C     1.244824827450000e+01   7.082296023191990e+00  -1.322216999999988e-01  2.11187950e+00  -2.45103747e+00   5.65414830e-01
C     1.220612261420000e+01   7.151511790511088e+00   3.760866600000000e+00 -3.65700030e-01   2.87182880e-01   3.42238700e-01
C     1.346615321320000e+01   7.806482073061672e+00   3.573954900000000e+00  9.25355800e-02   3.25816370e-01  -1.10137871e+00
