52
Lattice="8.88768389401873 1.33226762955019e-15 0 4.44384194700937 7.69696003302603 0 0 0 30 " PBC="1 1 1" Properties=species:S:1:pos:R:3:force:R:3 Energy="-418.78826419"
C     1.241505805026274e+01   6.638981085431576e+00  -1.132053000000006e-01 -6.99985980e-01   8.72132640e-01  -1.41550980e-01
C     8.635889543762806e+00   6.440272670756282e+00  -2.998985999999988e-01 -4.53788940e-01   3.49554290e-01   5.92540950e-01
C     9.982646149221582e+00   6.033427219308144e+00  -2.072481000000010e-01  1.39031472e+00   1.22225853e+00  -2.40298070e-01
C     1.035054373515593e+01   4.648186234248169e+00  -1.779782999999995e-01 -1.26980131e+00   4.41063130e-01   2.77344300e-02
C     6.246702448952203e+00   5.858936211792840e+00  -1.549937999999997e-01 -3.79051100e-02  -1.37395982e+00  -1.39574420e-01
C     7.603348380258987e+00   5.426849657500720e+00  -2.872463999999972e-01  2.27070010e-01   1.96772233e+00   5.20856220e-01
C     7.949531354740805e+00   4.071805001182440e+00  -2.206397999999972e-01 -7.80661540e-01  -6.90239510e-01  -7.96386000e-02
C     9.292078219843072e+00   3.656994581556058e+00  -2.325087000000003e-01  1.78685573e+00  -2.56879480e-01   3.96382020e-01
C     9.667539624704082e+00   2.257126678503073e+00  -1.838201999999995e-01  1.87859240e-01   2.57154700e+00   2.44690370e-01
C     3.858791581091274e+00   5.249102604983926e+00  -3.385410000000277e-02 -7.21399840e-01   1.06337396e+00   2.69872860e-01
C     5.215704098510592e+00   4.869745383860526e+00   2.276430000000000e-02  1.35535420e-01   1.21504971e+00  -1.00710423e+00
C     5.539065411622223e+00   3.525933440101229e+00  -1.345680000000016e-02  4.35764120e-01  -2.11904969e+00   7.73601290e-01
C     6.891513023263235e+00   3.111958371546902e+00  -1.051034999999985e-01  1.02556221e+00  -7.63749280e-01  -1.27941570e-01
C     7.267733702961871e+00   1.716558399852131e+00  -1.128014999999998e-01 -8.39428770e-01   8.81004500e-01  -1.81177880e-01
C     8.629677049399000e+00   1.322265612638519e+00  -1.802165999999978e-01 -1.79140680e-01  -5.31980170e-01   1.28039150e-01
C     2.812942710784634e+00   4.296256668374073e+00  -2.526540000000210e-02  8.66710140e-01  -1.89171438e+00  -9.98800900e-02
C     3.182506293036005e+00   2.867671946236360e+00   3.824010000000001e-02 -1.46237886e+00   2.42982732e+00  -3.47410900e-02
C     4.519790182844430e+00   2.509634226821658e+00   1.030002000000000e-01  9.19638110e-01  -1.11174120e-01  -7.96796480e-01
C     4.826409410281895e+00   1.130080217649449e+00  -9.082799999998059e-03  2.62395853e+00   9.34156500e-02  -4.43662470e-01
C     6.248608009484308e+00   7.291736635908584e-01  -1.136115000000011e-01 -1.29880358e+00   8.64750350e-01   4.28586540e-01
C     1.104479640943406e+01   7.079522211529447e+00  -1.624904999999970e-01 -7.90233750e-01  -2.81774669e+00   1.74328070e-01
C     2.159545652864518e+00   1.923036895677711e+00  -6.935249999999726e-02 -1.04961582e+00  -2.48205386e+00  -7.05973890e-01
C     2.473309511591410e+00   4.879639441131091e-01  -2.009124000000000e-01  5.97762490e-01   2.67679418e+00   7.05964980e-01
C     3.836649424282974e+00   1.650650023841644e-01  -1.690415999999999e-01  1.67391120e-01  -2.51104148e+00  -2.59588280e-01
C     4.520972648092538e+00   7.658843914235437e+00  -1.580168999999998e-01  1.24922263e+00  -2.05246502e+00  -1.06933110e-01
C     5.922827072213058e+00   7.216116543610644e+00  -2.167176000000026e-01 -2.05002079e+00   9.22299310e-01   3.58521120e-01
C     9.256413903983264e-01   1.027685095343149e+00   3.606111000000000e+00  3.15168800e-01   2.24849510e+00  -2.00462930e-01
C     3.350476451266455e+00   4.325729251964147e-01   3.726397200000000e+00 -6.33949090e-01   8.23507190e-01  -2.74900440e-01
C     4.721420089062806e+00   8.300419399360068e-01   3.658364400000000e+00 -1.16936284e+00   2.70940711e+00   4.06333000e-03
C     1.016246994736938e+01   7.597661163804968e+00   3.543321600000000e+00  6.68523420e-01  -2.71247168e+00  -4.80552710e-01
C     7.081185883199034e+00   2.606344605358600e-01   3.458706300000000e+00  3.62210570e-01   3.02657950e-01   1.68877900e-01
C     1.256187956654340e+01   6.993632989098683e+00   3.449145300000000e+00 -5.87384540e-01  -9.47721310e-01   2.85444650e-01
C     5.023433857184435e+00   7.394834644604823e+00   3.562248300000000e+00  5.64433550e-01  -2.29431061e+00  -3.04848560e-01
C     6.059382824007584e+00   6.384554915886314e+00   3.555346200000000e+00  8.84687100e-02   1.20703900e-02  -1.23191180e-01
C     7.447816845981137e+00   6.752983377402316e+00   3.636405300000000e+00 -1.18673413e+00   7.51587900e-01  -6.74103820e-01
C     8.449419536194892e+00   5.788630177669211e+00   3.441429900000000e+00  9.87022800e-01   1.89884850e-01   6.87602380e-01
C     9.813800419328626e+00   6.183941888451596e+00   3.461889300000000e+00  4.04263860e-01   1.08460551e+00   4.15457890e-01
C     1.085532134184854e+01   5.228467593930699e+00   3.509086500000000e+00 -6.36979840e-01  -1.24770765e+00  -7.75233160e-01
C     3.322742214849454e+00   5.595448719082660e+00   3.466435200000000e+00  1.09025506e+00   3.44871560e-01   7.53900900e-02
C     4.344758626214561e+00   4.585199547295470e+00   3.460432500000000e+00  3.99470320e-01   5.49259540e-01   6.17433430e-01
C     5.737338530559461e+00   4.997900384116829e+00   3.423503700000000e+00 -1.07829362e+00   3.68658770e-01   5.32889900e-01
C     6.778525142847903e+00   4.039434666080273e+00   3.422787300000000e+00 -6.08707560e-01  -8.93728350e-01  -2.00383380e-01
C     8.125092218963225e+00   4.426141560397118e+00   3.404611500000000e+00  4.34609500e-01  -7.60313310e-01  -3.00618760e-01
C     9.145738105039360e+00   3.424030307480046e+00   3.404235300000000e+00  2.19381700e-02  -9.82881300e-02   4.63929910e-01
C     1.051533317012232e+01   3.824052019013588e+00   3.486809100000000e+00 -2.50112130e-01  -1.93231230e-01   6.84285620e-01
C     2.620001357845941e+00   2.815845158600758e+00   3.691654500000000e+00  8.07281870e-01   2.79948250e-01  -7.66782050e-01
C     4.012073508794527e+00   3.204411869369652e+00   3.656634900000000e+00 -2.34146940e-01   7.39240170e-01  -7.06926200e-01
C     5.059669829837835e+00   2.261702752149709e+00   3.609334200000000e+00  4.25099700e-01  -1.40791344e+00  -1.30492250e-01
C     6.451699497656914e+00   2.649478369366720e+00   3.438904200000000e+00 -1.81782817e+00  -1.91448780e-01   5.26438430e-01
C     7.435103010849033e+00   1.630720208266365e+00   3.436535100000000e+00  1.00127730e-01   7.54168170e-01   7.46338000e-02
C     8.788487918163449e+00   2.033185242791829e+00   3.475225500000000e+00  9.80272250e-01   8.88810700e-02  -9.71660100e-02
C     2.292838380616819e+00   1.431913503411487e+00   3.697904700000000e+00  5.29472670e-01  -4.71398950e-01   2.12965760e-01
