52
Lattice="8.88768389401873 1.33226762955019e-15 0 4.44384194700937 7.69696003302603 0 0 0 30 " PBC="1 1 1" Properties=species:S:1:pos:R:3:force:R:3 Energy="-418.7133745"
C     1.227975097303598e+01   6.577151713388987e+00  -1.316063999999990e-01  8.83312370e-01  -1.89725008e+00   3.35868450e-01
C     8.524059416777042e+00   6.271142980749874e+00  -1.093098000000019e-01 -9.00950360e-01   2.02281599e+00  -6.14972570e-01
C     9.890507130299424e+00   5.896802561204429e+00  -1.179734999999980e-01  6.57328600e-02   1.45957900e+00   1.38068840e-01
C     1.021242832753564e+01   4.527900759865739e+00  -1.480209000000023e-01  1.26222195e+00   8.75381400e-02  -6.64603730e-01
C     6.124866434167743e+00   5.751262514297967e+00  -9.857429999999923e-02 -2.29670030e-01  -1.25903741e+00  -2.08014670e-01
C     7.452423242709955e+00   5.283586294401531e+00  -1.096778999999977e-01  2.00563546e+00   2.48847326e+00   3.57088900e-01
C     7.810922680660777e+00   3.945601026354542e+00  -1.063341000000015e-01  1.82819400e-01  -1.40753473e+00  -4.37325030e-01
C     9.195030844193202e+00   3.544690392907137e+00  -1.824608999999988e-01 -3.68076890e-01   7.19293990e-01   3.67992020e-01
C     9.564424227350933e+00   2.197469003732949e+00  -2.263700999999969e-01 -6.10356730e-01  -1.56104586e+00   4.96971080e-01
C     3.729653578554400e+00   5.166600044966360e+00  -2.425860000000029e-01 -1.84044860e-01   3.85562290e-01   4.66378360e-01
C     5.098755821042071e+00   4.760614266983973e+00  -1.891484999999982e-01 -9.05457390e-01   1.24837670e+00  -4.69473750e-01
C     5.422889340569202e+00   3.417905682444975e+00  -3.215174999999988e-01 -3.85456000e-03  -2.36751589e+00   5.16783770e-01
C     6.766435670148013e+00   2.979536484528369e+00  -1.848477000000024e-01  8.40859690e-01  -6.53422780e-01  -1.66645640e-01
C     7.127840980743151e+00   1.576987499388134e+00  -1.618817999999997e-01  1.17273840e+00   1.44844669e+00  -2.59001120e-01
C     8.515866124331129e+00   1.193860384211641e+00  -1.320015000000012e-01  6.62487120e-01   9.95856730e-01   1.50276580e-01
C     2.713990615589959e+00   4.168036397896716e+00  -3.030696000000006e-01 -4.53656410e-01  -3.30683990e-01  -6.39505600e-02
C     3.061478346481746e+00   2.776811642170220e+00  -4.592291999999993e-01 -1.07264377e+00   6.07929870e-01   1.36563205e+00
C     4.394608088377341e+00   2.381484537467776e+00  -4.198377000000022e-01  1.60476880e+00   1.25209288e+00  -3.57049460e-01
C     4.749182058533432e+00   1.024077453207488e+00  -3.964425000000027e-01  1.01231071e+00  -1.36509338e+00   1.13116906e+00
C     6.144960195385600e+00   6.046616345167550e-01  -2.243231999999971e-01 -2.19482167e+00   1.11177920e-01  -1.33120490e-01
C     1.093185576636771e+01   6.943444653344666e+00  -1.216398000000005e-01 -1.44099511e+00  -1.19255312e+00  -4.03143550e-01
C     2.054352359403962e+00   1.782799053627114e+00  -2.728299000000014e-01 -1.07852981e+00   1.28600012e+00  -7.44896110e-01
C     2.400576794933684e+00   4.316914693337791e-01  -2.130354000000025e-01 -1.41809931e+00  -1.37852921e+00   1.76080330e-01
C     3.726952563651503e+00   3.995384194132580e-02  -2.559080999999992e-01  1.84949465e+00  -2.36332724e+00   1.11974740e-01
C     4.443175418038163e+00   7.529926222209761e+00  -5.389530000000065e-02  1.44169000e-02  -2.39340220e-01  -8.12117500e-01
C     5.820142194234912e+00   7.106227584049536e+00  -1.067604000000024e-01 -6.95435780e-01   1.83559233e+00   1.93260380e-01
C     1.016538844302952e+00   1.138881537504553e+00   3.668485500000000e+00  1.23694803e+00   8.60762910e-01  -9.95435920e-01
C     3.468016692926922e+00   5.516359683868799e-01   3.536642700000000e+00 -1.27880748e+00   7.94563070e-01  -2.01366110e-01
C     4.824773854140394e+00   9.551394767595923e-01   3.441392400000000e+00 -1.58825090e-01   7.44455560e-01   7.95521320e-01
C     1.028437808570168e+01   7.694677111655102e+00   3.543033900000000e+00  9.25822390e-01  -3.77214700e-02  -5.11223330e-01
C     7.213826610881254e+00   4.161922548605687e-01   3.544552800000000e+00 -3.46957270e-01  -1.16476673e+00   7.68315100e-02
C     1.265345488408892e+01   7.090367305181318e+00   3.604573200000000e+00  2.31310480e-01   3.01658000e-02  -5.97035630e-01
C     5.139034228493044e+00   7.471399461776845e+00   3.596569200000000e+00 -1.03159520e-01  -6.29815710e-01   4.44486470e-01
C     6.186582733762970e+00   6.476269890394185e+00   3.621444900000000e+00 -5.13297330e-01   1.42976218e+00   3.43677130e-01
C     7.550658191654866e+00   6.894735981186817e+00   3.666516900000000e+00  4.19110010e-01  -7.88641780e-01  -4.76711480e-01
C     8.593768409790355e+00   5.912124360748948e+00   3.718286400000000e+00 -3.39180610e-01   1.03174392e+00  -2.40519550e-01
C     9.955428017446234e+00   6.328991177186546e+00   3.589148100000000e+00 -2.63288340e-01  -1.50645772e+00   5.32816480e-01
C     1.096062315388478e+01   5.300027770721615e+00   3.582013200000000e+00 -4.93954580e-01   6.27526450e-01  -9.63723500e-02
C     3.417819990869861e+00   5.703751873968787e+00   3.551093400000000e+00  5.91729500e-01   4.24177350e-01   5.04482780e-01
C     4.453634575940502e+00   4.736435036745731e+00   3.599384100000000e+00  5.15953610e-01  -8.77063020e-01  -8.39490300e-01
C     5.823495871587850e+00   5.126394435462454e+00   3.640803000000000e+00  6.29736480e-01  -6.53902150e-01   8.15427000e-03
C     6.883398257475896e+00   4.148226962776307e+00   3.685662900000000e+00 -1.36388150e+00   3.45468560e-01   2.14660960e-01
C     8.226826070343874e+00   4.562434248614738e+00   3.802318800000000e+00  9.45891110e-01  -1.53229319e+00  -5.29464200e-01
C     9.253905884089464e+00   3.539116870210213e+00   3.789151200000000e+00 -1.36956510e-01   5.84691990e-01  -1.03571946e+00
C     1.061214546652506e+01   3.923677467222692e+00   3.618906300000000e+00  2.89293040e-01  -4.12005670e-01   7.82330470e-01
C     2.744618195596174e+00   2.910973042155533e+00   3.585769500000000e+00  1.05509725e+00   5.51806030e-01  -1.13591542e+00
C     4.157492859486637e+00   3.344092836362079e+00   3.466284600000000e+00 -1.49339867e+00  -9.94325460e-01   1.16659450e+00
C     5.191729880637470e+00   2.331621167366226e+00   3.482912100000000e+00 -1.11353577e+00   1.51204119e+00  -1.97444120e-01
C     6.534411794657251e+00   2.780110944087079e+00   3.599465100000000e+00  4.67073040e-01  -1.14299048e+00  -5.04598900e-01
C     7.561666695790126e+00   1.779349968868070e+00   3.553703100000000e+00 -3.65492570e-01   6.29092750e-01   6.91875310e-01
C     8.914596420367264e+00   2.171268089973227e+00   3.659600400000000e+00 -3.48523100e-02  -5.87493280e-01   4.45432310e-01
C     2.395874855354513e+00   1.518492527400141e+00   3.541568400000000e+00  7.04852430e-01   8.07884900e-01   8.37875690e-01
