52
Lattice="8.88768389401873 1.33226762955019e-15 0 4.44384194700937 7.69696003302603 0 0 0 30 " PBC="1 1 1" Properties=species:S:1:pos:R:3:force:R:3 Energy="-418.61556126"
C     1.307703643251449e+01   7.327076304251126e+00  -6.393779999999794e-02 -1.75859815e+00   2.42519973e+00  -2.38144500e-01
C     9.303742462873807e+00   7.128446167659336e+00  -1.074744000000010e-01 -8.17625560e-01  -1.26607819e+00  -7.07337350e-01
C     1.065943692321529e+01   6.748002751536504e+00  -2.893214999999998e-01  2.48765590e-01  -1.04342157e+00   6.27867190e-01
C     1.102250351967869e+01   5.338587308353506e+00  -2.910159000000014e-01 -1.64548025e+00   3.49190970e-01   6.86068480e-01
C     6.882100346100674e+00   6.521436729424630e+00   7.323480000000000e-02  3.88701880e-01   7.91404100e-01  -8.44138640e-01
C     8.250843348401943e+00   6.109960863792044e+00  -1.223078999999991e-01  1.62474890e-01   1.42270099e+00   6.93225990e-01
C     8.576764536652172e+00   4.744872906148219e+00  -2.198501999999998e-01  2.10603500e-02  -5.22509800e-01   2.44183290e-01
C     9.957133251623953e+00   4.340349550571532e+00  -2.303244000000007e-01  5.85255950e-01   4.77674950e-01   3.03361540e-01
C     1.030780108469252e+01   2.955434146920826e+00  -2.506650000000121e-02  4.85690190e-01   2.03545487e+00  -5.55017490e-01
C     4.508518557763876e+00   5.987521318175618e+00  -1.490621999999995e-01 -9.88619600e-01  -1.29888697e+00   8.16943400e-01
C     5.827733741750523e+00   5.575624197920590e+00  -6.485669999999999e-02  1.69626841e+00   5.95470940e-01   1.22456460e-01
C     6.158953722705887e+00   4.223370844157190e+00  -1.442792999999973e-01  1.03382159e+00  -9.62660840e-01   2.27994370e-01
C     7.494663470316912e+00   3.764929898722352e+00  -1.661807999999994e-01  2.20065472e+00   2.38330535e+00  -2.63515030e-01
C     7.881852796261605e+00   2.446583424191908e+00  -1.602486000000027e-01  7.16256070e-01  -2.81592992e+00   1.76959690e-01
C     9.290126350075647e+00   2.009966054378129e+00  -3.665279999999882e-02 -1.73176754e+00   2.19221960e-01   3.36365170e-01
C     3.490018157266350e+00   4.969280623698080e+00  -1.396518000000029e-01 -4.81629830e-01   7.92385350e-01  -8.26390950e-01
C     3.822942707110906e+00   3.610761636591858e+00  -5.956559999999911e-02 -4.60087440e-01  -7.28233380e-01   3.74504930e-01
C     5.188002075538275e+00   3.244799819856670e+00  -8.811180000000007e-02 -1.52854811e+00  -2.45796476e+00  -4.40561360e-01
C     5.501246937974397e+00   1.825100391407989e+00  -1.646396999999986e-01  3.46328590e-01   1.05144210e-01   7.26968000e-01
C     6.863657065570956e+00   1.433155330942727e+00  -2.043843000000010e-01  6.99685850e-01  -4.36461660e-01   2.73801280e-01
C     7.226194311589230e+00   3.508166624233580e-02  -1.983239999999995e-01  1.16812729e+00   4.58590940e-01   2.68096600e-02
C     2.795222889935963e+00   2.613727529419376e+00   6.314489999999999e-02  6.10040070e-01  -9.90555970e-01  -3.00237220e-01
C     3.148856943052001e+00   1.209728821857491e+00   1.310325000000000e-01  2.31908200e-02   2.38506090e-01  -2.70856100e-01
C     4.514980656025616e+00   7.852703398031032e-01  -1.445220000000091e-02 -5.83701930e-01   1.93803548e+00  -1.94409680e-01
C     7.500599956156377e-01   6.572106279119722e-01   1.107873000000000e-01 -4.50587250e-01  -1.68293539e+00  -8.13904830e-01
C     2.116361106756845e+00   2.283604144036673e-01   1.634493000000000e-01  8.83687200e-02  -3.49495600e-02  -1.36319640e-01
C     2.670696129295941e-01   3.186674609828519e-01   3.564599400000000e+00  3.55960680e-01   1.25151011e+00  -1.06165100e-02
C     7.124030256770230e+00   7.442340204940383e+00   3.446049300000000e+00  7.70949460e-01  -7.18404900e-02  -1.53547870e-01
C     4.069241444836857e+00   1.650639248097602e-01   3.392676300000000e+00 -3.01623200e-01   7.33573300e-02  -2.84557100e-02
C     9.558128639514914e+00   6.888704258459308e+00   3.296501100000000e+00 -1.79255141e+00   1.38085700e-02   9.22450790e-01
C     1.088390409012898e+01   7.273735447608021e+00   3.480495300000000e+00  9.07281470e-01   8.28079860e-01  -1.86407850e-01
C     1.187693847535053e+01   6.274307431927007e+00   3.572817300000000e+00  8.16286770e-01  -2.66521190e-01  -2.93623890e-01
C     4.364912917247881e+00   6.655532705249688e+00   3.634418700000000e+00  5.45853850e-01  -5.72342680e-01  -2.62197540e-01
C     5.429963760654763e+00   5.669727231247371e+00   3.611648100000000e+00 -9.45259810e-01   4.59209780e-01   4.07565400e-01
C     6.792167072346880e+00   6.046981873799375e+00   3.457170900000000e+00 -4.77838170e-01   1.72578807e+00   1.64118560e-01
C     7.828773683392324e+00   5.118068479858802e+00   3.369052200000000e+00 -1.62735280e-01   4.56485300e-02   2.66736540e-01
C     9.175979828423202e+00   5.513160827280331e+00   3.295423200000000e+00  4.35617910e-01   3.48369540e-01  -1.93371880e-01
C     1.017157573302926e+01   4.530001260257926e+00   3.323833800000000e+00  1.04734301e+00  -1.53140519e+00   3.18757780e-01
C     1.153526386562004e+01   4.891207818116980e+00   3.480614700000000e+00  8.71948900e-01   8.02273400e-02   3.97495700e-01
C     3.693643082289172e+00   3.907995757827171e+00   3.622284900000000e+00 -1.87032070e-01  -5.10390540e-01  -4.89267820e-01
C     5.080808565157842e+00   4.302188715469194e+00   3.736013100000000e+00 -4.43478440e-01  -2.86224800e-02  -1.63966361e+00
C     6.140663979659911e+00   3.360015229697739e+00   3.563673900000000e+00 -1.25759463e+00  -8.23823140e-01   1.13141263e+00
C     7.482106283946999e+00   3.774432180727388e+00   3.489744000000000e+00  5.67537830e-01  -2.11693758e+00  -3.16326110e-01
C     8.489429176346890e+00   2.744950537943637e+00   3.477377400000000e+00  4.63502800e-01   4.60801700e-02  -3.08375850e-01
C     9.860098006945663e+00   3.124408666213028e+00   3.364254900000000e+00 -1.46076820e-01  -3.19058150e-01   5.60129840e-01
C     1.993797814087469e+00   2.103121130107615e+00   3.443163000000000e+00 -3.50751930e-01   2.22253270e-01  -1.99256820e-01
C     3.366106600125903e+00   2.495323576916280e+00   3.480674400000000e+00 -1.21044000e-02   1.48638454e+00   6.49679120e-01
C     4.416328698498459e+00   1.553826423022660e+00   3.501365700000000e+00  2.10487640e-01  -5.92444720e-01   4.17198400e-02
C     5.801348161224267e+00   1.962207341027183e+00   3.594069600000000e+00 -9.48257520e-01   3.82632770e-01  -8.03274910e-01
C     6.804482954815278e+00   9.822715687437436e-01   3.547873500000000e+00 -5.80387340e-01  -1.20760020e+00   9.29316200e-02
C     8.153697538637999e+00   1.356400321888364e+00   3.551561100000000e+00  6.19830890e-01  -1.52647710e-01  -4.50744900e-02
C     1.642458248059611e+00   7.003741791554083e-01   3.500703300000000e+00  4.05168100e-02   1.20697502e+00  -8.50834600e-02
