52
Lattice="8.88768389401873 1.33226762955019e-15 0 4.44384194700937 7.69696003302603 0 0 0 30 " PBC="1 1 1" Properties=species:S:1:pos:R:3:force:R:3 Energy="-418.65666595"
C     1.240434772460484e+01   6.647984450487468e+00  -2.943450000000070e-02  5.28783640e-01   2.66439950e-01  -4.64146320e-01
C     8.679589041200673e+00   6.481040081372778e+00  -1.154384999999998e-01 -1.88329527e+00   2.60095560e-01   6.77997900e-02
C     1.000513607782948e+01   6.082081704867381e+00  -1.064993999999970e-01  7.45368020e-01  -4.18379750e-01  -4.15734700e-02
C     1.033452235184090e+01   4.724051166844663e+00  -1.081554000000011e-01  2.09033954e+00  -1.05482166e+00   2.51144370e-01
C     6.237516894336551e+00   5.858814984672367e+00  -9.179969999999926e-02  9.70235240e-01   2.33203846e+00   7.26069930e-01
C     7.638510101963698e+00   5.532415773400180e+00  -8.036489999999930e-02 -7.70906330e-01  -2.29018744e+00  -6.65693350e-01
C     7.991374703845975e+00   4.126901919256388e+00  -1.551135000000023e-01 -1.35056757e+00  -4.96167980e-01   9.34938340e-01
C     9.348930422939365e+00   3.733618126533109e+00  -1.139643000000028e-01 -6.97281390e-01  -2.52641360e-01  -3.03440690e-01
C     9.671077678406744e+00   2.351510112083746e+00  -9.948659999999876e-02  5.88265870e-01  -7.61094680e-01  -2.06837680e-01
C     3.861190366980998e+00   5.261127873517196e+00  -4.523640000000029e-02  9.41713140e-01   1.66780503e+00   2.99302600e-02
C     5.226289952170404e+00   4.883521710800623e+00  -5.960190000000054e-02  6.43170780e-01  -1.01487283e+00   5.15076500e-01
C     5.594341206149862e+00   3.483891105025362e+00   2.971770000000000e-02 -1.72965130e-01   1.60669330e-01  -1.81267984e+00
C     6.960739415256606e+00   3.084351300159299e+00  -8.170829999999896e-02  5.01711500e-01   1.33952273e+00   3.58141430e-01
C     7.319729808831453e+00   1.693932800995945e+00  -5.460180000000037e-02 -1.17802924e+00   1.65457232e+00  -1.67125170e-01
C     8.666798771976000e+00   1.341665030698131e+00  -7.602330000000279e-02  8.59142300e-02   1.91526790e-01   3.57815800e-02
C     2.856792987769147e+00   4.320785571506478e+00  -6.422520000000276e-02 -1.98883238e+00  -7.46255370e-01  -1.19424750e-01
C     3.199608774323024e+00   2.951308345435945e+00  -9.139350000000235e-02 -9.25156300e-01  -1.67573925e+00  -7.07043220e-01
C     4.558014378154332e+00   2.505586780389882e+00  -1.447400999999999e-01 -1.01232470e-01   3.98424310e-01   1.32130973e+00
C     4.874073081326482e+00   1.111215584372721e+00  -1.403129999999990e-01  1.90866138e+00   1.05015658e+00   1.41833200e-01
C     6.292969283845849e+00   7.410366802066961e-01  -5.086920000000106e-02 -1.80041576e+00  -1.48818986e+00  -5.61917870e-01
C     1.104285342837940e+01   7.016328861199942e+00  -7.736009999999993e-02  5.56860150e-01   2.31099724e+00   3.31295560e-01
C     2.138525169516048e+00   1.941304013947309e+00  -1.488462000000013e-01  1.55842135e+00   5.88014380e-01   9.15437020e-01
C     2.515877651321245e+00   5.483499052412719e-01  -6.498899999999708e-02 -1.14361261e+00   9.26549710e-01  -6.56015270e-01
C     3.863017715900621e+00   1.402179069241193e-01  -1.483809000000029e-01  4.93410970e-01   4.76648860e-01   4.67492840e-01
C     4.532623290719914e+00   7.671270425295071e+00  -6.306269999999969e-02  9.28933190e-01  -9.34537090e-01   4.86235260e-01
C     5.916012796155233e+00   7.304594638547500e+00  -2.044829999999820e-02 -5.32743460e-01  -2.50825778e+00  -7.19839810e-01
C     9.185793700917411e-01   1.023298520852452e+00   3.534138000000000e+00  4.74109620e-01  -1.37383300e-01   1.17199420e-01
C     3.318404888449963e+00   4.447783025943869e-01   3.554851500000000e+00 -1.21038280e-01  -6.70524230e-01  -1.95970450e-01
C     4.677616116934431e+00   8.410300431052345e-01   3.464209500000000e+00  3.47260790e-01  -1.33134904e+00   5.68236230e-01
C     1.016938425431040e+01   7.510742242061389e+00   3.454026300000000e+00 -1.92024001e+00   1.02008946e+00  -4.82563780e-01
C     7.063976038703683e+00   1.971019051778328e-01   3.397698900000000e+00  1.50034540e-01   1.78041123e+00   7.65589330e-01
C     1.252498434656914e+01   6.941612238070324e+00   3.479665500000000e+00  1.16740213e+00  -3.61553490e-01  -7.61749460e-01
C     5.000555536776774e+00   7.324978266886148e+00   3.483541500000000e+00  9.23977420e-01   1.17648061e+00   4.56213160e-01
C     6.040904929239582e+00   6.361593267755217e+00   3.500896800000000e+00 -1.32986800e-02  -5.25791350e-01  -2.56283420e-01
C     7.414021250218455e+00   6.726383453234639e+00   3.489784800000000e+00 -2.05394660e-01   2.00858703e+00   1.09040219e+00
C     8.431203294842646e+00   5.768796881972709e+00   3.594629400000000e+00  2.00462680e-01  -6.19477240e-01  -1.98096331e+00
C     9.809073193557111e+00   6.144406530227101e+00   3.448953600000000e+00 -1.22441850e-01   1.52335530e-01   3.61380880e-01
C     1.085098135246017e+01   5.182869956047375e+00   3.364249800000000e+00  4.07284500e-02  -1.40870420e-01   1.33826251e+00
C     3.342179712813037e+00   5.566039327534432e+00   3.430592400000000e+00 -1.52341218e+00   2.07363300e-01   1.32273560e-01
C     4.338586574139171e+00   4.588311120357197e+00   3.523679700000000e+00  6.57515180e-01   1.98347220e-01  -1.07183498e+00
C     5.701934397333552e+00   4.979928059416380e+00   3.475826700000000e+00 -2.31933130e-01   9.08744900e-02   6.14580210e-01
C     6.702721331464641e+00   3.989677437057537e+00   3.483354600000000e+00 -5.40348700e-02  -5.40090640e-01  -7.50185130e-01
C     8.053332970339971e+00   4.397577833847387e+00   3.440475600000000e+00  1.78652710e+00  -8.01100160e-01   1.62762830e+00
C     9.109906740857094e+00   3.418732105043396e+00   3.549668400000000e+00  3.80731560e-01  -8.76270940e-01  -9.96041730e-01
C     1.052973739496156e+01   3.819644816670011e+00   3.544219800000000e+00 -2.37776708e+00  -4.27492500e-01  -1.12430415e+00
C     2.648528201286224e+00   2.846835043921546e+00   3.475387500000000e+00 -5.10042100e-01  -1.57784616e+00   1.24424992e+00
C     3.998628265059963e+00   3.228746655170101e+00   3.444741300000000e+00 -1.58990600e-02  -7.77505720e-01   6.14624100e-01
C     4.990866180479174e+00   2.213086597451421e+00   3.486658800000000e+00  4.17506560e-01   2.43865660e-01  -7.03216160e-01
C     6.342843945228356e+00   2.595001441423189e+00   3.425398200000000e+00  1.44938285e+00   3.04846800e-01   7.20484940e-01
C     7.381787261645283e+00   1.606886340624669e+00   3.457582800000000e+00  4.40608330e-01  -2.64151650e-01  -7.96770440e-01
C     8.770815647487545e+00   1.988502080729670e+00   3.453114300000000e+00 -1.73225290e-01   1.78644916e+00   9.80685080e-01
C     2.313813581233734e+00   1.441146622724274e+00   3.644993700000000e+00 -1.19274953e+00   5.31629800e-02  -1.66520599e+00
