76
Lattice="10.7446858958278 0 0 5.37234294791388 9.3051709414712 0 0 0 30 " PBC="1 1 1" Properties=species:S:1:pos:R:3:force:R:3 Energy="-611.83883739"
C     1.798991355985720e-01   7.191426919611479e-02  -2.184135000000005e-01 -2.11914780e+00   1.65618725e+00  -2.51672840e-01
C     1.259619808651636e+01   8.612890694663571e+00  -1.627170000000007e-01 -4.06369480e-01  -6.23607640e-01  -3.36171300e-02
C     1.402224547789372e+01   8.406147848408397e+00  -2.235300000000002e-01  9.77987100e-02   8.30945390e-01   7.44590690e-01
C     1.463676119484662e+01   7.113992450806919e+00  -1.236417000000003e-01 -3.07194923e+00  -4.52613990e-01   1.93173330e-01
C     8.299875474054041e+00   9.062076792105747e+00  -2.076770999999979e-01  2.82743039e+00  -2.38791881e+00   2.03063650e-01
C     9.777716549343763e+00   8.858552790582136e+00  -1.291389000000009e-01 -2.34797532e+00   1.68826943e+00  -3.19393370e-01
C     1.033424867628417e+01   7.591201814948580e+00  -1.466118000000023e-01 -6.34325980e-01  -1.40358062e+00   7.08724400e-01
C     1.173691880082547e+01   7.456508814230115e+00  -1.115613000000018e-01  1.56884213e+00  -1.17111870e-01  -6.16176160e-01
C     1.235624314078263e+01   6.148355873696882e+00  -1.460049000000012e-01 -2.12200152e+00   3.95807890e-01   4.14636480e-01
C     1.373253371835369e+01   5.983362910105041e+00  -9.800519999999935e-02  2.38738522e+00  -1.23025829e+00  -1.15336620e-01
C     6.052155734870082e+00   8.100058716819147e+00  -1.135748999999997e-01  3.01118599e+00  -1.78400273e+00  -1.99359660e-01
C     7.501148725327472e+00   7.890992741587091e+00  -1.547304000000018e-01 -1.78577707e+00   1.71518327e+00   4.75292800e-01
C     8.035444133840103e+00   6.609556249546529e+00  -6.277860000000146e-02  1.78097600e+00  -5.35965520e-01  -6.05018170e-01
C     9.459670569574563e+00   6.434040347293770e+00  -1.028463000000031e-01  7.31640100e-01   4.37967740e-01  -5.49932230e-01
C     1.007113022924035e+01   5.148384518542174e+00  -2.227083000000007e-01 -1.17085510e+00  -3.16822530e-01   8.39102710e-01
C     1.147499070380909e+01   5.018424593022339e+00  -1.626371999999989e-01  1.09132765e+00  -1.18705926e+00  -1.14419397e+00
C     1.205660946966538e+01   3.682841311281917e+00  -3.260973000000007e-01 -1.12597502e+00   1.03825856e+00   4.50615810e-01
C     5.258637794974115e+00   6.940315436435324e+00  -2.493089999999754e-02  4.03460360e-01  -8.00692710e-01  -5.91106120e-01
C     5.816717747641847e+00   5.600908287748818e+00  -4.230929999999944e-02  2.12550130e-01   1.04146143e+00   4.14591700e-01
C     7.226342746195931e+00   5.460648282412079e+00  -9.147210000000072e-02 -4.88825700e-01  -5.60373350e-01   2.80605240e-01
C     7.797358548559249e+00   4.160834822178692e+00  -1.397220000000026e-01 -4.88467810e-01  -8.61012560e-01   2.04818680e-01
C     9.211725499341579e+00   3.966576537670295e+00  -2.292924000000021e-01 -2.80092820e-01   2.02503646e+00   1.53418340e-01
C     9.761617249225498e+00   2.688918503341629e+00  -2.652323999999986e-01  1.69649672e+00   3.45408960e-01   3.14676220e-01
C     1.121500857685605e+01   2.555643703726129e+00  -3.392934000000025e-01 -1.65010319e+00  -1.00291063e+00  -2.59127300e-02
C     3.578361142644866e+00   4.635963550098168e+00  -8.756369999999691e-02 -1.62494628e+00   2.38922030e-01  -7.63418410e-01
C     4.981499520597691e+00   4.462490691176996e+00  -2.618280000000084e-02 -7.13306250e-01   3.23522900e-02  -5.54699380e-01
C     5.520411759471265e+00   3.142473006333297e+00  -8.749409999999713e-02 -4.16697910e-01   6.65937470e-01  -7.21684700e-02
C     6.911362386484289e+00   2.998347446884662e+00  -7.785150000000129e-02  1.72027360e+00   1.36256223e+00   1.71616550e-01
C     7.503086368259249e+00   1.727269936393056e+00  -2.724299999999857e-02  1.49894890e-01   1.81646060e-01  -1.14301141e+00
C     8.925904444289365e+00   1.585316017738398e+00  -1.325772000000001e-01 -2.82427180e-01  -2.32489957e+00  -4.48269690e-01
C     9.496114986167909e+00   2.457660346779638e-01  -2.177156999999994e-01 -2.95502580e-01   7.25309930e-01   3.51814870e-01
C     2.695355441549596e+00   3.479903814682654e+00  -3.147815999999999e-01  1.59395638e+00   1.36835163e+00   1.11478801e+00
C     3.247315167405257e+00   2.176643253874544e+00  -2.859012000000014e-01  4.37623660e-01  -1.88393860e-01  -1.62564770e-01
C     4.664764285061432e+00   2.021549410283803e+00  -1.865370000000013e-01 -7.31583020e-01  -5.68664400e-01   6.34783930e-01
C     5.215628160402153e+00   7.030142252742647e-01  -9.069899999999720e-02  4.38035200e-01   1.26896664e+00  -8.07060770e-01
C     6.629021911259092e+00   6.290653804521189e-01  -1.375628999999989e-01  1.17572868e+00  -2.48544532e+00   8.98538180e-01
C     9.943570177810424e-01   1.233204348145294e+00  -3.261269999999996e-01  4.48042040e-01  -2.58053240e-01   1.68403320e-01
C     2.394598252351221e+00   1.020096578863739e+00  -3.144872999999997e-01  3.17074500e-02   2.07890923e+00   2.00490240e-01
C     1.594212658430265e+01   9.225521747460011e+00   3.523287300000000e+00  1.09124615e+00   8.90873300e-01   1.53680801e+00
C     1.172541795765526e+01   8.764152296654384e+00   3.505438200000000e+00 -1.93949035e+00  -1.42360143e+00  -6.72415780e-01
C     1.310740955811801e+01   8.877624017578794e+00   3.473771700000000e+00  2.29503173e+00   1.70021290e-01  -1.66927860e-01
C     1.399683692818827e+01   7.772559038258924e+00   3.490353900000000e+00 -9.02720090e-01  -2.06164096e+00   7.20098530e-01
C     7.490715205531135e+00   8.240358920494348e+00   3.497757300000000e+00 -8.09731360e-01   1.24210781e+00   1.19398032e+00
C     8.899740543165141e+00   8.403706171553740e+00   3.500960100000000e+00 -1.62843189e+00  -3.51480200e-01  -7.54916800e-02
C     9.693703366780799e+00   7.259952617758085e+00   3.530395800000000e+00  2.21385875e+00  -7.50696900e-02  -3.32535060e-01
C     1.111247391963238e+01   7.462964276569739e+00   3.501619500000000e+00  1.65545005e+00  -1.71657534e+00   7.79094450e-01
C     1.202420408794871e+01   6.277828766569716e+00   3.597261300000000e+00 -1.51493608e+00   1.45436005e+00   3.05610200e-02
C     1.342655219425359e+01   6.413019221726634e+00   3.575066700000000e+00 -6.16152100e-02   2.99566168e+00  -4.78582920e-01
C     4.668065965868214e+00   7.918680184667351e+00   3.591577500000000e+00 -1.81010154e+00   9.38130960e-01  -1.18241324e+00
C     5.483452833593598e+00   6.801599717267787e+00   3.569558400000000e+00  1.62010577e+00  -1.54236425e+00  -2.30926310e-01
C     6.928557644564355e+00   6.956569150723060e+00   3.566454000000000e+00 -1.41101373e+00  -7.29180420e-01  -7.59732930e-01
C     7.729171858539548e+00   5.793073932364519e+00   3.499654500000000e+00  1.44630678e+00  -3.70370940e-01   8.12511300e-02
C     9.169376394335320e+00   5.948565292857816e+00   3.540189600000000e+00 -9.39234270e-01   9.08905200e-02   1.81924260e-01
C     1.003030633239760e+01   4.831988049102687e+00   3.653614200000000e+00  7.11419110e-01  -5.23877510e-01  -2.63550520e-01
C     1.147925150900273e+01   4.982665379410176e+00   3.713817600000000e+00 -1.66354904e+00   5.27574370e-01  -6.54331100e-01
C     1.231642897579732e+01   3.852058264170262e+00   3.707673000000000e+00 -1.55192460e-01   1.91439880e-01   7.22801080e-01
C     3.515455841809021e+00   5.311159408537047e+00   3.561962100000000e+00  1.35379101e+00  -9.37315980e-01   5.06018010e-01
C     4.931577399798822e+00   5.477275134054508e+00   3.488309100000000e+00  8.98323500e-02   4.27922250e-01   6.28510130e-01
C     5.778317153533548e+00   4.335207118922924e+00   3.480177000000000e+00 -3.26762520e-01  -1.06949825e+00  -4.28595130e-01
C     7.184001592257236e+00   4.470906753033679e+00   3.447502500000000e+00  1.23850200e-02   1.44281752e+00   5.13030200e-01
C     8.046300457026605e+00   3.370191568921422e+00   3.509751300000000e+00  6.61938720e-01  -2.29208382e+00   2.03707990e-01
C     9.469081678784086e+00   3.521518586263940e+00   3.624126900000000e+00 -2.72789610e-01   5.37417790e-01   3.20281940e-01
C     1.033835782023634e+01   2.395251030543605e+00   3.738404100000000e+00 -2.03754774e+00  -3.15247620e-01  -9.20146580e-01
C     1.171561837432702e+01   2.582615393057684e+00   3.740757000000000e+00  1.50321677e+00  -1.89273177e+00   7.27754900e-02
C     2.984946377096684e+00   4.007912619381928e+00   3.714314700000000e+00 -7.04620680e-01  -5.19110440e-01  -1.17555004e+00
C     3.778169321641267e+00   2.850009622654909e+00   3.593391900000000e+00  2.14687164e+00  -1.07017889e+00   7.33863300e-02
C     5.243340639381715e+00   2.994601464219347e+00   3.470430300000000e+00 -2.13608395e+00   1.55517729e+00   4.13029720e-01
C     6.076374955293266e+00   1.873210562485246e+00   3.450745500000000e+00  6.60082730e-01  -3.51445310e-01   1.66708250e-01
C     7.506991685519892e+00   2.009235319268645e+00   3.517117800000000e+00 -4.10630360e-01   1.11340438e+00  -8.24431540e-01
C     8.343462528046270e+00   8.514568257288028e-01   3.458163600000000e+00 -1.04284300e-01   2.24665293e+00   1.10633673e+00
C     9.752527728464964e+00   1.087028580383450e+00   3.609977400000000e+00 -9.16079700e-02  -1.12155131e+00  -6.31343350e-01
C     1.801556542297486e+00   1.390392599611210e+00   3.698414100000000e+00  1.34216880e-01   2.63177150e-01  -1.40613000e-01
C     3.223436016290809e+00   1.507886666777855e+00   3.618442500000000e+00 -5.22821750e-01   1.82324225e+00  -1.52683670e-01
C     4.056598032794281e+00   3.796980585169564e-01   3.505473300000000e+00  2.08209118e+00   1.30512022e+00  -3.46991700e-02
C     5.501910807160631e+00   5.816224081042727e-01   3.451570200000000e+00 -9.89230210e-01  -1.83891200e-01   3.70765720e-01
C     1.233957657497227e+00   9.045333346671440e-02   3.640168200000000e+00  6.98509420e-01  -6.07841600e-01  -1.03233455e+00
