64
Lattice="9.86 0 0 4.93 8.53901048131456 0 0 0 30 " PBC="1 1 1" Properties=species:S:1:pos:R:3:force:R:3 Energy="-509.88401245"
C     4.981836435700000e+00   8.103636136771375e+00  -7.316043000000008e-01  2.63399878e+00   2.47275752e+00   6.88271810e-01
C     1.326419605900000e+00   3.300910764935784e-01  -6.033635999999980e-01 -1.23027793e+00  -5.14317470e-01  -2.27011381e+00
C     9.789882384799999e+00   4.429953246919200e-01   3.791979299999999e+00 -5.78803290e-01  -2.23417145e+00   1.23685613e+00
C     1.174943236000000e+00   1.115481337879709e+00   3.953136300000000e+00 -3.80480140e-01  -1.36228078e+00  -6.73260200e-02
C     7.493642398000000e+00   8.210334915273691e+00  -7.945059000000008e-01 -1.23527496e+00  -2.98162115e+00   2.17226493e+00
C     3.766529860000000e+00   3.111453177712880e-01  -5.648595000000007e-01  3.07258708e+00   7.10368330e-01   6.18145890e-01
C     2.390025200900000e+00   4.066791692907944e-01   3.816859200000000e+00  5.78782890e-01  -1.23526911e+00  -4.29427900e-01
C     3.562124862200000e+00   1.194447203535186e+00   3.875837100000000e+00  1.72939377e+00  -1.16942864e+00  -3.26442170e-01
C     1.000584561970000e+01   8.151218577209708e+00  -4.311740999999998e-01 -3.87021645e+00  -2.87438470e-01  -1.48425941e+00
C     6.249766176500000e+00   3.167830286604984e-01  -5.959926000000024e-01  2.12234202e+00  -1.99647313e+00   3.21222010e-01
C     4.797446153299999e+00   4.267111755362456e-01   3.672175800000000e+00  4.26553000e-01  -1.94075970e-01   1.50785345e+00
C     6.044873256600000e+00   1.059054702726821e+00   3.781001400000000e+00  6.22116520e-01   3.86549814e+00   4.58575120e-01
C     1.245787286700000e+01   8.036455386429871e+00  -6.443076000000012e-01 -1.25795320e+00   4.24136863e+00   7.78819750e-01
C     8.731924499200000e+00   2.536386685728896e-01  -7.170297000000012e-01 -1.51347214e+00   2.68745110e+00  -3.55898110e-01
C     7.299702212600000e+00   4.423284279734320e-01   3.869982300000000e+00  7.89613390e-01  -3.09251308e+00   1.40301432e+00
C     8.582349087999999e+00   1.112075809720075e+00   4.064604900000000e+00 -2.00138478e+00   1.53198198e+00  -1.90683743e+00
C     1.306734115900000e+00   1.753007019750386e+00  -5.551397999999992e-01 -7.63470420e-01  -8.45332220e-01   1.36873954e+00
C     2.519225563000000e+00   2.378726153390787e+00  -2.118456000000002e-01  2.02051941e+00   1.92179381e+00  -1.72728758e+00
C     1.102659664740000e+01   2.455583054237914e+00   4.279454400000000e+00  4.26647950e-01   3.57313016e+00   3.44494100e-02
C     2.401642795200000e+00   3.296991529905673e+00   4.337054100000000e+00 -4.61063120e-01  -4.88817800e-01  -1.40738179e+00
C     3.818743391400000e+00   1.713226758577734e+00  -3.544710000000002e-01 -2.03832630e+00   2.40631760e-01   4.58124500e-02
C     5.041041101499999e+00   2.433164309173198e+00  -4.161314999999988e-01 -8.54919860e-01   1.21893896e+00  -4.54398800e-02
C     3.617076614200000e+00   2.635017550959394e+00   4.081763400000000e+00  1.29690310e-01  -2.50765318e+00  -9.08223070e-01
C     4.869107450100000e+00   3.286377625269138e+00   3.782658300000000e+00 -1.61443620e+00  -1.18067685e+00   1.62371471e+00
C     6.232432197900000e+00   1.723479633851175e+00  -6.187337999999976e-01  5.23333760e-01  -5.00238120e-01  -1.28938570e-01
C     7.449948498199999e+00   2.410708163242580e+00  -7.266657000000016e-01  1.60035581e+00   2.40232300e-02   1.79409680e-01
C     6.085509915500000e+00   2.548963367314364e+00   3.864993600000000e+00 -6.05521130e-01  -1.44679241e+00  -1.63882746e+00
C     7.291384020800000e+00   3.261887487042184e+00   3.826751100000000e+00  1.36721683e+00   2.08515130e-01   1.24499636e+00
C     8.713557439099999e+00   1.750590650564756e+00  -7.308378000000033e-01 -5.53962670e-01  -2.17136939e+00   1.75700500e-02
C     9.914907628500000e+00   2.476066347187233e+00  -5.874338999999971e-01  7.76858040e-01  -4.74841780e-01   6.54475110e-01
C     8.571025765400000e+00   2.585400093543467e+00   4.082046000000000e+00 -2.94659344e+00  -3.17325174e+00  -5.01040340e-01
C     9.769693837600000e+00   3.174644246187814e+00   4.257312300000000e+00  2.07827495e+00   3.38641622e+00  -7.31528900e-02
C     2.562535317200000e+00   3.822014126290360e+00  -1.783253999999985e-01 -1.21194428e+00   1.49391266e+00   1.07009781e+00
C     3.777172793300000e+00   4.576689225419512e+00  -1.720913999999993e-01  1.87615815e+00  -6.24376310e-01  -1.82666010e-01
C     1.229578368610000e+01   4.731751336868556e+00   4.181992200000000e+00 -2.61540145e+00  -5.61889430e-01   1.27253574e+00
C     3.641598286299999e+00   5.443565641404290e+00   4.039153200000000e+00 -4.92164810e-01  -3.35028231e+00  -1.00453537e+00
C     5.064245329700000e+00   3.894904571379422e+00  -4.021401000000004e-01 -2.22960584e+00  -2.20093727e+00   2.96107970e-01
C     6.289686752900000e+00   4.523709788797399e+00  -6.380909999999993e-01 -1.72311903e+00   2.62722780e+00   8.92495730e-01
C     4.780405756200000e+00   4.659552893188794e+00   3.749686500000000e+00  3.34057154e+00   2.52175734e+00  -2.69114260e-01
C     6.063895217900000e+00   5.381809297470205e+00   3.535177800000000e+00 -1.43588827e+00  -1.00970591e+00   1.01150290e+00
C     7.496358334999998e+00   3.806851576161234e+00  -6.938208000000010e-01  1.71766370e-01   1.13187689e+00   4.38550290e-01
C     8.705245754899998e+00   4.546548397007417e+00  -5.065202999999983e-01 -1.53039338e+00   1.58304349e+00  -5.87379730e-01
C     7.259656315600000e+00   4.690834533401016e+00   3.726248400000000e+00  2.44552749e+00  -8.35628500e-01  -7.55139650e-01
C     8.576410064899999e+00   5.361882833394287e+00   3.748206300000000e+00 -4.51746090e-01  -1.56463217e+00   1.24187634e+00
C     9.908602355699999e+00   3.881899658418382e+00  -3.346143000000019e-01  1.74692351e+00  -2.35944890e-01  -4.12877310e-01
C     1.115918613800000e+01   4.606048819762790e+00  -1.345883999999984e-01 -1.41013680e-01  -8.86639570e-01  -1.14177711e+00
C     9.745429905899998e+00   4.648896464280067e+00   4.176309900000000e+00  1.83284420e+00   1.05924360e-01  -1.27290778e+00
C     1.101970924020000e+01   5.432274764016901e+00   4.149340500000000e+00 -1.03048869e+00  -4.63822685e+00   2.69487430e-01
C     3.799972022000000e+00   6.020186831026368e+00  -1.409075999999985e-01  4.84051380e-01  -1.40152333e+00  -2.23652623e+00
C     4.921633937899999e+00   6.749503459952853e+00  -6.121029000000000e-01  3.41745756e+00  -4.44293942e+00   1.83062580e+00
C     1.348232997290000e+01   6.798355138908933e+00   3.924576300000000e+00 -8.85042390e-01   3.17283019e+00   9.79207200e-02
C     4.809895685100000e+00   7.514273633441776e+00   3.677603700000000e+00  2.64943831e+00   9.28925400e-01   1.03915340e-01
C     6.181330578699999e+00   5.972067713779367e+00  -6.079710000000027e-01  1.82548302e+00   1.52437412e+00  -1.15268238e+00
C     7.453790841600000e+00   6.717388326927678e+00  -6.988241999999971e-01 -2.41894114e+00   8.02969150e-01  -4.60805870e-01
C     6.105190081100000e+00   6.769674652069130e+00   3.533520300000000e+00 -8.34032580e-01   2.58108312e+00   3.31927570e-01
C     7.381104252700000e+00   7.466483353488360e+00   3.591746100000000e+00 -8.25975690e-01   1.38575648e+00   8.49723000e-03
C     8.620574089500000e+00   6.002413307662771e+00  -5.772231000000012e-01  3.23035940e+00  -4.95348610e-01   8.67834530e-01
C     9.899683196900000e+00   6.735711079445348e+00  -4.230309000000005e-01  5.63928500e-02  -6.68146190e-01  -4.69425300e-02
C     8.663765572999999e+00   6.752922223578731e+00   3.609721500000000e+00 -3.55040143e+00   1.70985645e+00   4.70848780e-01
C     9.802959456300000e+00   7.536988084439414e+00   3.777655500000000e+00 -4.33728160e-01  -6.76451320e-01  -9.26622280e-01
C     1.110943435280000e+01   6.039872324226541e+00  -2.591970000000003e-01  3.07162461e+00  -1.33214258e+00   6.71811800e-01
C     1.250114066690000e+01   6.714146833159366e+00  -2.806185000000028e-01 -6.02931033e+00  -6.66267090e-01  -8.53095500e-02
C     1.098618814890000e+01   6.759533723223081e+00   3.944881500000000e+00  1.35305588e+00   4.77444781e+00   4.11398230e-01
C     1.221127530230000e+01   7.507323391251684e+00   4.040733899999999e+00  1.33188489e+00   1.03423432e+00  -1.82713329e+00
