76
Lattice="10.7446858958278 0 0 5.37234294791388 9.3051709414712 0 0 0 30 " PBC="1 1 1" Properties=species:S:1:pos:R:3:force:R:3 Energy="-612.22005855"
C     1.090410480469830e-01   7.720500328918001e-02   8.690790000000000e-02  1.66888814e+00  -1.69753522e+00   1.99654040e-01
C     1.256271001652497e+01   8.548333279716040e+00   7.826190000000000e-02  1.15964310e-01  -2.06555695e+00   3.29520880e-01
C     1.396288635319232e+01   8.326456317340629e+00   1.681995000000000e-01  8.76129490e-01   2.54593176e+00  -7.75473250e-01
C     1.452200461858199e+01   7.062407002460004e+00  -1.586460000000045e-02  3.78485900e-02  -6.59289500e-01  -5.18921800e-02
C     8.355101547877155e+00   9.027640773801252e+00  -7.524959999999936e-02 -5.67618600e-02  -4.78869500e-02   4.95256130e-01
C     9.778462821502947e+00   8.856078824784317e+00  -6.116340000000164e-02 -8.23612400e-01   1.12014449e+00   3.74811690e-01
C     1.030929237040824e+01   7.552749591814671e+00  -6.917099999999721e-02 -4.39630950e-01  -4.97483700e-01  -5.33295220e-01
C     1.170292331304246e+01   7.394431134286384e+00  -5.352359999999834e-02  8.73392000e-01   2.33080020e-01   2.63139450e-01
C     1.225160639320948e+01   6.092546529105171e+00  -1.568289000000007e-01  4.02146810e-01   2.35821490e-01  -1.66319310e-01
C     1.367308030903351e+01   5.928734577809035e+00  -1.925735999999993e-01 -3.44389730e-01   2.96940150e-01   3.92810640e-01
C     6.048177461192179e+00   8.041148889270229e+00  -1.286939999999959e-02  6.30492160e-01   4.51990990e-01   3.68944780e-01
C     7.497810029077765e+00   7.885342455688904e+00  -6.627299999999892e-02 -1.38269331e+00   4.66881650e-01  -2.78328360e-01
C     8.027186842725953e+00   6.576141380700989e+00  -1.565133000000003e-01  1.31950448e+00   7.08660630e-01   2.80722100e-01
C     9.457202461499904e+00   6.409468833754477e+00  -1.811493000000013e-01 -3.81135630e-01  -8.36514970e-01   4.41151460e-01
C     1.001341638456738e+01   5.059457512264748e+00  -1.823627999999999e-01 -9.44224240e-01   2.50797692e+00  -2.09400400e-01
C     1.140032475329797e+01   4.960676423013571e+00  -2.254199999999997e-01  9.39979500e-01  -5.20354990e-01  -1.68548660e-01
C     1.196545628215158e+01   3.662639040757502e+00  -2.740635000000005e-01  5.29444950e-01  -5.80733230e-01   1.05483548e+00
C     5.188761879160646e+00   6.891721228338780e+00  -4.462440000000001e-02  2.45545990e-01   5.42277690e-01  -2.96333260e-01
C     5.727529763179152e+00   5.587382663477271e+00  -1.686875999999984e-01  2.24844420e+00   6.73904930e-01   2.08639600e-02
C     7.187217691640825e+00   5.467025116057260e+00  -1.415681999999983e-01 -1.42046185e+00  -1.55163702e+00  -3.97219370e-01
C     7.761408763581311e+00   4.154256438530950e+00  -1.321289999999991e-01 -6.94278250e-01  -7.53037130e-01   3.46904400e-02
C     9.156986482130311e+00   3.944813231668985e+00  -1.317701999999983e-01  1.78812390e-01   6.81262800e-02   2.92793870e-01
C     9.719138026072988e+00   2.644333148989457e+00   1.429680000000000e-02  1.22718297e+00   9.94222830e-01  -5.14793640e-01
C     1.115511630084029e+01   2.529614535159085e+00  -7.290809999999937e-02 -4.07826140e-01  -1.94845131e+00   4.21640820e-01
C     3.478688493680953e+00   4.643163333061285e+00  -2.729873999999981e-01  8.96147790e-01  -1.56251710e+00  -4.42165000e-02
C     4.926328567013243e+00   4.440425339326974e+00  -2.809989000000002e-01 -2.01641751e+00   1.75958430e+00   6.48843980e-01
C     5.475124251488502e+00   3.184877693875680e+00  -1.752533999999990e-01  1.75575364e+00  -2.46300280e+00  -1.52497270e-01
C     6.921944021775757e+00   2.985570051408402e+00  -9.236009999999695e-02 -9.79889670e-01   1.00585027e+00   8.88121100e-02
C     7.479342761357428e+00   1.691338577118502e+00   5.639370000000000e-02 -9.28379200e-02  -3.68764430e-01   3.99379320e-01
C     8.887940191875465e+00   1.535347715049145e+00   1.493475000000000e-01 -9.34559900e-02  -1.54055261e+00  -3.15681550e-01
C     9.476094735271015e+00   2.113715174358606e-01   1.728267000000000e-01 -2.22643221e+00  -2.01597150e-01   1.59971170e-01
C     2.630896351685752e+00   3.478807107235665e+00  -2.286225000000002e-01  7.31373650e-01   8.55377450e-01  -5.83487680e-01
C     3.222904100615329e+00   2.192698954124676e+00  -1.555137000000002e-01  5.28832010e-01  -9.64738600e-01   3.36496280e-01
C     4.659520717171944e+00   2.018588597942405e+00  -1.427757000000014e-01 -3.89812790e-01   1.22645700e-02   5.46268410e-01
C     5.265134300686404e+00   7.132527048595468e-01   2.370180000000000e-02 -2.20350309e+00  -2.92713800e-01  -7.78740920e-01
C     6.640830321063191e+00   5.152134502430994e-01   1.071168000000000e-01  5.75983430e-01   2.13734241e+00  -3.63270640e-01
C     1.009951586279155e+00   1.181236364221035e+00   7.242540000000000e-02 -1.77965876e+00   1.85148898e+00  -7.98228600e-01
C     2.395606103888641e+00   1.027186746913181e+00  -5.210699999999235e-03  8.80020120e-01   5.28809700e-02  -6.41514190e-01
C     1.602051019613517e+01   9.265223282844325e+00   3.691872600000000e+00 -6.89901000e-02  -4.74137660e-01   5.10753800e-02
C     1.174478009654078e+01   8.766845399227838e+00   3.659102100000000e+00  7.24873470e-01   5.72002650e-01   3.07190180e-01
C     1.316588181644523e+01   8.918542576270351e+00   3.726917100000000e+00  1.60926710e-01  -5.86513140e-01   2.65695880e-01
C     1.403647305372821e+01   7.774830895743925e+00   3.655716000000000e+00 -8.83505980e-01   4.44994090e-01  -2.49062130e-01
C     7.540705125298034e+00   8.274188706912103e+00   3.578523600000000e+00 -2.92490950e-01  -2.41665210e-01  -1.08903697e+00
C     8.954293784757198e+00   8.419860320512417e+00   3.513198300000000e+00 -1.01678555e+00   1.29595201e+00   2.94464760e-01
C     9.778534972068766e+00   7.312268801178918e+00   3.490308000000000e+00  5.73754700e-01  -2.49611666e+00  -5.80352300e-01
C     1.118761983526266e+01   7.465557906865846e+00   3.583198500000000e+00 -1.01979030e-01  -5.97447600e-01  -6.92280600e-01
C     1.202399574848911e+01   6.297823903989007e+00   3.425558400000000e+00  2.30067840e-01   1.59277342e+00  -3.27859960e-01
C     1.343536783297053e+01   6.498808710466512e+00   3.421862700000000e+00  9.94687230e-01  -7.11048540e-01   5.32198820e-01
C     4.710525203904949e+00   7.946656181098462e+00   3.665386800000000e+00 -3.17352220e-01  -1.40105390e-01  -4.77941520e-01
C     5.525314076136569e+00   6.796209697000791e+00   3.456852900000000e+00  1.51891278e+00   6.62941500e-01   3.49254080e-01
C     6.974644449731219e+00   6.958757633876439e+00   3.428718600000000e+00 -1.74957607e+00   1.10914064e+00   5.38800370e-01
C     7.778884135622789e+00   5.830844830882201e+00   3.339412200000000e+00  1.75486302e+00  -1.49873908e+00  -1.62432010e-01
C     9.220116937859192e+00   5.960354293076830e+00   3.307351200000000e+00 -8.36617270e-01   2.14260443e+00   1.27280329e+00
C     1.005298922390737e+01   4.837935542160698e+00   3.354008100000000e+00  3.81635500e-02  -7.06822300e-02  -7.59576370e-01
C     1.146465571278246e+01   5.015489742107863e+00   3.237544200000000e+00  1.76562800e-02  -3.35775460e-01   1.23377665e+00
C     1.231500036236006e+01   3.887626721778155e+00   3.272186700000000e+00  1.27556544e+00  -1.02755215e+00  -2.40976970e-01
C     3.577847331765128e+00   5.369810273178705e+00   3.314527800000000e+00 -1.34240055e+00  -1.15394401e+00  -4.81172880e-01
C     4.968022246179603e+00   5.502514014453617e+00   3.335157000000000e+00  9.17322260e-01   7.95343800e-02  -3.54024940e-01
C     5.820856224586521e+00   4.343737913537297e+00   3.243215100000000e+00 -5.29560390e-01   1.32395800e-02   7.78648000e-01
C     7.235938825173221e+00   4.494888970097342e+00   3.339958800000000e+00 -1.00130922e+00   8.51065420e-01  -2.32204870e-01
C     8.073816093360477e+00   3.365570248825779e+00   3.477737700000000e+00 -8.37125400e-02   9.23359600e-02  -6.21547130e-01
C     9.462508187397324e+00   3.552481542566790e+00   3.441395700000000e+00  1.36740079e+00  -8.45653820e-01   2.31646380e-01
C     1.031741207581945e+01   2.407122474577148e+00   3.529403700000000e+00  4.77745300e-01  -1.56231720e-01   3.01285320e-01
C     1.174964545148659e+01   2.571433834397634e+00   3.436768500000000e+00 -7.65465950e-01   5.67082550e-01  -2.87889490e-01
C     3.038167385084000e+00   4.027878166357630e+00   3.207814800000000e+00 -2.82317625e+00   1.77169840e+00   9.84720920e-01
C     3.829706744794911e+00   2.903415720747945e+00   3.350765400000000e+00 -3.44021660e-01  -2.13697531e+00  -4.95962780e-01
C     5.210553176634436e+00   3.036944179323270e+00   3.318281400000000e+00  2.19158311e+00   1.31157945e+00   4.71836530e-01
C     6.086659607466458e+00   1.950447668614169e+00   3.540594300000000e+00  9.92024190e-01  -1.19722113e+00  -5.43154090e-01
C     7.527431086613743e+00   2.062537013343734e+00   3.538027200000000e+00 -8.11540280e-01  -1.24950500e-01   1.30124280e+00
C     8.359155141803219e+00   9.022589647859892e-01   3.789210300000000e+00 -1.17755730e-01   1.28339387e+00  -1.29037418e+00
C     9.774760739976102e+00   1.087684967141557e+00   3.731647800000000e+00  3.45129600e-01   3.55934430e-01  -3.97387140e-01
C     1.830043337066432e+00   1.424354333352894e+00   3.490795800000000e+00  1.91217200e+00   3.68923500e-01  -6.27890300e-02
C     3.265538799372811e+00   1.561264384099524e+00   3.440017800000000e+00 -2.48343640e-01   1.04624245e+00  -1.42190200e-02
C     4.130062996038927e+00   4.320895207706948e-01   3.498747000000000e+00  4.11312050e-01   7.04802280e-01   6.03999570e-01
C     5.558332442183840e+00   6.439856637441527e-01   3.625460100000000e+00 -1.31866694e+00  -1.36245835e+00  -5.91550750e-01
C     1.324854047018021e+00   1.268447403925416e-01   3.581712600000000e+00 -1.23908411e+00  -1.06288091e+00   4.01749810e-01
