52
Lattice="8.88768389401873 1.33226762955019e-15 0 4.44384194700937 7.69696003302603 0 0 0 30 " PBC="1 1 1" Properties=species:S:1:pos:R:3:force:R:3 Energy="-418.26610909"
C     1.307658578254866e+01   7.397595159319582e+00  -9.021990000000102e-02 -1.36716114e+00  -1.56039066e+00  -1.29982400e-01
C     9.293825229657628e+00   7.090945654757972e+00  -8.397539999999992e-02 -8.20347300e-02   2.32980174e+00  -1.30559277e+00
C     1.066068835354278e+01   6.743936216643853e+00  -3.139055999999982e-01  7.55051800e-02  -4.53103000e-01   1.38193416e+00
C     1.102829442343825e+01   5.347477528096957e+00  -2.916720000000019e-01 -1.35792069e+00   5.38776170e-01   4.76383000e-01
C     6.901326494974696e+00   6.543354977654059e+00   1.880160000000000e-02  3.75470630e-01   1.35832808e+00  -7.88337630e-01
C     8.245472032218164e+00   6.130835866059008e+00  -1.091991000000014e-01  1.03397177e+00   3.50539800e-02   5.45441230e-01
C     8.580270239122644e+00   4.742534492721505e+00  -1.821209999999986e-01  6.17236970e-01   1.34036204e+00  -3.51253070e-01
C     9.954083220712340e+00   4.351646301837962e+00  -2.611902000000015e-01  1.12162846e+00   1.49459660e+00   7.62808490e-01
C     1.031305575007887e+01   3.017114351878034e+00  -5.544869999999946e-02  3.19929380e-01  -1.11755649e+00  -5.39616840e-01
C     4.505100932228291e+00   5.970675212666759e+00  -1.742057999999993e-01  4.88263750e-01   2.15788506e+00   8.36551470e-01
C     5.873632363247443e+00   5.609819559215471e+00  -1.376267999999996e-01 -8.37182020e-01  -1.14982888e+00   5.75116640e-01
C     6.183148620122525e+00   4.225389679803459e+00  -1.420539000000005e-01  2.44925690e-01  -8.25197770e-01  -3.32756500e-02
C     7.536090075927451e+00   3.824604044986940e+00  -1.566477000000006e-01  6.98281650e-01  -2.33531691e+00  -3.18500300e-02
C     7.918564929884149e+00   2.400736250864412e+00  -1.505478000000018e-01 -1.03443048e+00   1.23007194e+00  -3.14895430e-01
C     9.280893735188284e+00   2.032144998643775e+00  -7.848720000000142e-02  6.52729990e-01  -3.95026040e-01   9.79939230e-01
C     3.506436509049953e+00   4.997525157315367e+00  -1.276137000000013e-01 -1.01253395e+00  -1.36312705e+00  -1.09082176e+00
C     3.829488352967916e+00   3.591184803603555e+00  -8.969730000000098e-02 -7.22072300e-01   5.60121810e-01   5.15161600e-01
C     5.174123512729830e+00   3.198593891222176e+00  -1.094127000000000e-01  3.98252290e-01   1.70010565e+00  -5.70173550e-01
C     5.506117299889837e+00   1.856747520145738e+00  -2.149371000000002e-01  9.29409160e-01  -1.80634849e+00   7.85928940e-01
C     6.875901894297037e+00   1.433635005491797e+00  -2.329892999999998e-01  2.33869280e-01   5.74412030e-01   5.97155400e-01
C     7.218292182989540e+00   7.163730033041660e-02  -1.801041000000012e-01  1.21121993e+00  -9.54843360e-01  -6.70450530e-01
C     2.807076482815051e+00   2.610888274803509e+00   1.762020000000000e-02 -3.78590840e-01   3.38255420e-01  -2.21749550e-01
C     3.178289663662894e+00   1.225511900216607e+00   9.352200000000001e-02 -8.41608580e-01   7.61132020e-01  -6.01311520e-01
C     4.513648347817103e+00   8.545693806460061e-01  -6.373049999999836e-02  8.08023090e-01  -2.01792912e+00   5.56524500e-02
C     7.733670134084928e-01   6.543449727232029e-01   7.437330000000000e-02  1.34129460e-01   1.71255750e-01  -1.19424484e+00
C     2.167909006756758e+00   2.502267851224946e-01   7.431630000000000e-02 -1.68744386e+00  -5.67145240e-01   5.06076110e-01
C     2.474248541545621e-01   3.124654814994788e-01   3.596690400000000e+00  8.07557640e-01   3.57423550e-01  -8.41916340e-01
C     7.111812491032939e+00   7.428537939244986e+00   3.517536300000000e+00 -5.58446730e-01   1.32842310e+00  -1.12022477e+00
C     4.030857893317207e+00   1.112314633295405e-01   3.427660500000000e+00  4.33555920e-01   2.08555166e+00   4.19705650e-01
C     9.528773597272824e+00   6.890788287357030e+00   3.380574000000000e+00  6.60208480e-01  -8.18228740e-01   3.61967720e-01
C     1.090760127726840e+01   7.307500394898025e+00   3.498227100000000e+00 -1.18311235e+00  -1.80524949e+00   2.19411300e-01
C     1.187557888190167e+01   6.265400432810692e+00   3.612792300000000e+00  1.63806620e-01  -4.33041740e-01  -1.08337181e+00
C     4.367803991914011e+00   6.614818095778998e+00   3.580516500000000e+00 -2.18856120e-01   1.01977663e+00   8.69857310e-01
C     5.416777681764275e+00   5.666111892151680e+00   3.619304400000000e+00 -1.14738730e-01  -1.99028140e-01  -1.33357190e-01
C     6.780384892032114e+00   6.087175322106434e+00   3.443994900000000e+00 -3.37878610e-01  -1.45336598e+00   8.88557340e-01
C     7.828719335209042e+00   5.123773081785036e+00   3.402130500000000e+00 -8.24240330e-01  -5.27060470e-01  -1.06281300e-02
C     9.190238784068399e+00   5.507424436909172e+00   3.341030400000000e+00 -2.41338380e-01  -7.13469090e-01   2.82936030e-01
C     1.015423390642263e+01   4.457977110716402e+00   3.389198700000000e+00  1.24558072e+00   1.05240407e+00  -4.24903370e-01
C     1.151062760581101e+01   4.873157138363425e+00   3.504975000000000e+00  6.59876320e-01   3.25823960e-01   9.58652890e-01
C     3.661676171941088e+00   3.905736007331963e+00   3.672812700000000e+00  1.27401345e+00  -6.42717000e-02  -1.28324821e+00
C     5.069091264905402e+00   4.296090491007026e+00   3.754586699999999e+00 -3.05105870e-01  -2.97777800e-01  -1.66241770e+00
C     6.109711953907816e+00   3.315561052196472e+00   3.560945700000000e+00 -4.54721430e-01   8.37268320e-01   1.20385915e+00
C     7.481586443293549e+00   3.739451960418247e+00   3.494686200000000e+00 -2.86116860e-01  -2.67402480e-01   1.25292920e-01
C     8.494544260620577e+00   2.749405307500199e+00   3.555289800000000e+00 -3.40071390e-01  -1.84321503e+00  -1.26231268e+00
C     9.848124252543654e+00   3.070708053658123e+00   3.361431600000000e+00  8.11205000e-02   1.07491889e+00   1.47792793e+00
C     1.985162940362349e+00   2.097931146928986e+00   3.478641900000000e+00  4.15231730e-01  -1.20549520e-01  -1.22427796e+00
C     3.384612757737603e+00   2.532029840512148e+00   3.418980000000000e+00 -1.21257352e+00  -1.40983654e+00   1.88693873e+00
C     4.395824011843544e+00   1.508975467231847e+00   3.507835200000000e+00 -9.85005400e-02   9.84557350e-01  -2.81448340e-01
C     5.771833540606225e+00   1.946267013774653e+00   3.600825000000000e+00 -6.15897080e-01  -9.66629010e-01  -6.96486590e-01
C     6.796753247245006e+00   9.602578012403418e-01   3.584191500000000e+00  9.73489100e-02   6.85586160e-01  -2.44738420e-01
C     8.160937445921387e+00   1.335762155081524e+00   3.565206900000000e+00 -6.08932520e-01   7.57577280e-01   6.33586530e-01
C     1.607295859854375e+00   7.114415610129450e-01   3.497086800000000e+00  1.54195658e+00   3.88292110e-01   7.51662020e-01
