64
Lattice="9.86 0 0 4.93 8.53901048131456 0 0 0 30 " PBC="1 1 1" Properties=species:S:1:pos:R:3:force:R:3 Energy="-515.02732115"
C     9.811585625199999e+00   4.860251063027360e-02  -2.082374999999992e-01  1.47109162e+00   8.85081340e-01  -2.21547300e-02
C     1.225991907000000e+00   7.689672679200512e-01  -1.963812000000011e-01 -1.41843357e+00   2.66895180e-01   6.58113100e-01
C     1.263265319900000e+00   6.631739660890343e-01   3.428868900000000e+00  4.32681560e-01  -1.10375565e+00   5.17781900e-02
C     2.481701361000000e+00   1.349225307495666e+00   3.590783100000000e+00  6.95358800e-02   1.63209319e+00   2.82992940e-01
C     2.457610028600000e+00   7.645454267330880e-02  -2.460102000000006e-01 -1.91806904e+00  -1.09282850e+00  -5.13757650e-01
C     3.632087921900000e+00   7.966002743442744e-01  -2.268515999999998e-01  1.63881857e+00  -8.71760250e-01   4.02712470e-01
C     3.712690809000000e+00   6.643526057055889e-01   3.526627500000000e+00 -1.96928390e-01  -1.12374759e+00  -2.34329490e-01
C     4.969219628999999e+00   1.282232159214406e+00   3.489471300000000e+00  1.87956660e-01   2.79950783e+00   2.17691830e-01
C     4.858788615000000e+00   6.521925424414400e-02  -2.367147000000003e-01  1.36542351e+00  -3.80375700e-02   2.15602760e-01
C     6.095820024500000e+00   7.754616123406152e-01  -2.239946999999987e-01  6.26126570e-01   4.72691540e-01   3.14406740e-01
C     6.192857066599999e+00   6.016286211039105e-01   3.420701100000000e+00  1.65303713e+00   1.39160483e+00  -1.55483890e-01
C     7.462815847500000e+00   1.358635040874311e+00   3.368065200000000e+00 -1.89202498e+00   6.06308250e-01  -1.22296710e-01
C     7.350751080799999e+00   6.838995961557760e-02  -1.626234000000011e-01 -8.04926340e-01  -2.35396030e-01  -6.30414100e-02
C     8.590510308599999e+00   7.661736452514144e-01  -2.082116999999997e-01 -2.79164360e-01   8.45233580e-01   2.35065210e-01
C     8.676451350399999e+00   6.362643846326768e-01   3.394102200000000e+00  3.77520600e-02   1.14340465e+00  -1.62802770e-01
C     9.915911770899999e+00   1.373305914779999e+00   3.441215700000000e+00 -9.08343000e-01  -8.07292370e-01   1.22017840e-01
C     1.106970146150000e+01   2.185140552331537e+00   2.250570000000000e-02  4.68547600e-02   2.43016730e-01  -9.26149030e-01
C     2.446283797300000e+00   2.925425967170106e+00   8.904090000000001e-02 -1.00010265e+00  -4.58617390e-01   2.01387780e-01
C     2.464408005600000e+00   2.779639014294542e+00   3.827672400000000e+00  1.32061872e+00  -8.29493040e-01  -5.81092030e-01
C     3.750004598599999e+00   3.438716560886006e+00   3.804272700000000e+00 -5.16638920e-01   1.19286426e+00  -5.32956230e-01
C     3.638384172800000e+00   2.177973675445568e+00  -5.437139999999729e-02  1.13815136e+00   1.91604355e+00   1.86383560e-01
C     4.892773175600000e+00   2.897700910212909e+00  -5.861099999999908e-02 -5.42755350e-01   1.17054731e+00  -2.85606480e-01
C     4.995882498699999e+00   2.738664999456786e+00   3.558300000000000e+00 -1.88710643e+00  -1.77830010e-01   3.60076840e-01
C     6.164722148199999e+00   3.509286529877128e+00   3.420658500000000e+00  1.71203337e+00  -2.27840428e+00  -5.43990070e-01
C     6.105067915699999e+00   2.214775188202377e+00  -1.906382999999998e-01  1.68315836e+00  -2.47617370e-01  -1.19386400e-02
C     7.392703113000000e+00   2.958399953869360e+00  -2.059956000000014e-01 -1.98424601e+00  -1.27155050e+00  -2.48127550e-01
C     7.429695367999999e+00   2.830616394519514e+00   3.302568000000000e+00 -1.33800900e-02  -2.75783328e+00   9.16637390e-01
C     8.675095551100000e+00   3.481253897762441e+00   3.432679800000000e+00 -3.71952500e-02   5.27845760e-01  -3.35563020e-01
C     8.613097991000000e+00   2.227676352186085e+00  -2.033705999999995e-01 -7.52811970e-01  -1.38436174e+00   2.73582780e-01
C     9.828850534499999e+00   2.891756136506837e+00  -5.941049999999848e-02  8.61274580e-01   1.42706515e+00   4.60561000e-01
C     9.903980332800000e+00   2.767336178775168e+00   3.574983600000000e+00 -4.76400370e-01   9.71376980e-01   3.16860200e-02
C     1.110080192280000e+01   3.507735333233331e+00   3.826867500000000e+00  5.35143820e-01  -7.19301700e-01  -5.56397570e-01
C     1.228710501270000e+01   4.352219133525463e+00   2.101647000000000e-01 -2.14321960e-01  -3.10644830e-01  -7.92441910e-01
C     3.659745862800000e+00   5.070671750198454e+00   1.307793000000000e-01  2.29449940e-01   9.11755400e-02  -7.71231040e-01
C     3.737685120200000e+00   4.903429935761157e+00   3.778587900000000e+00  6.87347920e-01   4.88707500e-02  -1.73421300e-01
C     4.974076073400000e+00   5.601600438571738e+00   3.518309100000000e+00 -4.92447310e-01   4.10874360e-01   8.21484400e-02
C     4.903268701900000e+00   4.360714082711386e+00  -4.340939999999804e-02 -2.23542400e+00  -1.47605395e+00   3.96818050e-01
C     6.071219373799999e+00   5.060364652208465e+00  -2.420031000000016e-01  2.95925532e+00  -2.12201420e-01  -1.83572800e-02
C     6.207994434400000e+00   4.877011603577714e+00   3.366959100000000e+00 -8.74953480e-01   2.36675547e+00   4.71047850e-01
C     7.451986905300000e+00   5.578287488329556e+00   3.325776600000000e+00 -4.57540790e-01   1.67786490e+00  -4.06275150e-01
C     7.336538531700000e+00   4.365808797924174e+00  -2.605590000000007e-01  8.38700120e-01  -2.42719620e-01   4.21239900e-01
C     8.601854928799998e+00   5.057171062288945e+00  -1.854222000000014e-01 -5.63230660e-01  -1.03335350e-01  -1.57942650e-01
C     8.678094963100000e+00   4.903425580865812e+00   3.403537500000000e+00  8.20520550e-01  -9.53961200e-02   1.09962911e+00
C     9.900322371399998e+00   5.627097923865018e+00   3.658690500000000e+00 -8.77267930e-01   7.67508790e-01  -1.02198854e+00
C     9.826777962500000e+00   4.353490933746355e+00   5.051099999999999e-03 -1.23909592e+00  -1.80293041e+00  -6.84828110e-01
C     1.102084323880000e+01   5.043901781563445e+00   7.898550000000000e-02  2.38294715e+00   4.44411000e-01   5.38961830e-01
C     1.111216059350000e+01   4.918316419681465e+00   3.836783400000000e+00  9.16083790e-01   1.46890296e+00   7.38742000e-02
C     1.238086010450000e+01   5.691479586571178e+00   3.859580400000000e+00 -7.83722240e-01  -3.95139264e+00  -2.80910160e-01
C     1.352019360540000e+01   6.501078455008737e+00  -2.422829999999720e-02  1.49225370e-01  -1.11821854e+00   4.35115770e-01
C     4.914877372899999e+00   7.176797252174149e+00  -1.755279000000023e-01 -5.61093690e-01  -2.29818000e-02  -2.86516110e-01
C     4.946676612399999e+00   7.039419175258870e+00   3.428973000000000e+00  8.30735490e-01   2.50809500e-01  -2.93571590e-01
C     6.192212567700000e+00   7.778161163953180e+00   3.310323000000000e+00  1.79756590e-01  -1.40436991e+00   3.40432700e-01
C     6.156202664499999e+00   6.457427460385501e+00  -3.073392000000013e-01 -1.11344049e+00   1.53621602e+00   4.56757590e-01
C     7.383922733700000e+00   7.192425519934854e+00  -3.607265999999996e-01  5.54777900e-01  -8.06470440e-01   5.37140480e-01
C     7.456894030100000e+00   7.034640488823948e+00   3.295171800000000e+00 -2.30647222e+00  -2.33176300e-02   6.61697770e-01
C     8.623297520100000e+00   7.785494636933614e+00   3.449630700000000e+00  1.63573132e+00  -8.58740750e-01  -3.66771610e-01
C     8.638399046800000e+00   6.467572231786265e+00  -2.737824000000018e-01 -1.18349751e+00   3.30712900e-01   2.07198770e-01
C     9.859417027499997e+00   7.168761530971841e+00  -1.645584000000007e-01 -1.04537758e+00   9.61148010e-01  -4.06553560e-01
C     9.875078405000000e+00   7.076882375937775e+00   3.534618300000000e+00  2.34763670e-01  -1.14728429e+00   2.79388130e-01
C     1.112746873650000e+01   7.750233134716873e+00   3.510764400000000e+00 -4.95186140e-01  -5.28306290e-01   7.01848150e-01
C     1.107697414820000e+01   6.464707906110855e+00  -2.190750000000108e-02 -1.74844186e+00  -5.19749300e-01   1.46391020e-01
C     1.225420687620000e+01   7.172564550069318e+00  -2.248709999999932e-02  2.67970408e+00   1.53027529e+00  -4.50207970e-01
C     1.235451733970000e+01   7.050389498192841e+00   3.678028200000000e+00  4.88291570e-01   1.62054886e+00  -1.02908458e+00
C     1.357961602930000e+01   7.769309284129192e+00   3.463275600000000e+00  4.17887880e-01  -1.00692309e+00   6.29912070e-01
