64
Lattice="9.86 0 0 4.93 8.53901048131456 0 0 0 30 " PBC="1 1 1" Properties=species:S:1:pos:R:3:force:R:3 Energy="-511.55450387"
C     4.968256504200000e+00   8.145427505692277e+00  -5.236614000000017e-01  1.26341921e+00   4.25286103e+00  -4.38186280e-01
C     1.331928190700000e+00   3.600054503477432e-01  -5.410946999999986e-01 -1.68338213e+00   3.10423530e-01  -3.70578230e-01
C     9.772552843200000e+00   3.907973783089376e-01   3.997110600000001e+00  1.87913249e+00  -1.57861050e+00   1.58209460e-01
C     1.186960061700000e+00   1.110256402757102e+00   4.008785700000000e+00 -1.54570814e+00  -4.51759475e+00   5.37365120e-01
C     7.502876386600000e+00   8.232380078629907e+00  -5.611113000000003e-01 -1.08740359e+00  -1.82866857e+00  -6.99727640e-01
C     3.753107294100000e+00   3.974488405223336e-01  -7.477568999999988e-01  1.26212926e+00  -1.06327348e+00   1.93662319e+00
C     2.369910751600000e+00   3.383159367780192e-01   4.225035600000000e+00  1.44486433e+00   8.59808670e-01  -6.70545870e-01
C     3.652169537400000e+00   9.787319883060720e-01   4.111665900000000e+00  2.76734270e-01  -5.14561240e-01  -1.59586240e-01
C     9.937105347899999e+00   8.197034467159938e+00  -5.911647000000002e-01  1.78880770e-01  -3.93635540e-01  -1.38337053e+00
C     6.211599398300000e+00   4.117740552837912e-01  -5.923176000000012e-01 -2.61185330e-01  -2.42227702e+00  -6.60583060e-01
C     4.914580784100000e+00   2.438337497892296e-01   4.127765400000000e+00 -1.53900649e+00   2.19840115e+00   2.53531600e-01
C     6.105748206399999e+00   1.043018270265171e+00   4.127672700000000e+00  2.68340430e-01  -1.10770885e+00   2.14589100e-01
C     1.237697230650000e+01   8.221474993736004e+00  -6.966750000000026e-01 -5.41412570e-01   1.34047127e+00   1.12265679e+00
C     8.670232648399999e+00   3.511111316416704e-01  -5.630907000000001e-01  1.12747122e+00   2.13368751e+00   3.45291750e-01
C     7.359728117799999e+00   3.060215699228688e-01   4.104279300000000e+00 -1.38353809e+00   1.13258750e-01  -4.97565360e-01
C     8.555800051999999e+00   1.066045590606797e+00   4.031331900000000e+00  1.14101110e-01  -2.35007561e+00  -5.12295430e-01
C     1.293277631600000e+00   1.773905479389243e+00  -7.052112000000008e-01 -3.95081370e-01   1.59476446e+00  -4.46032800e-01
C     2.525105081000000e+00   2.577273858830070e+00  -8.141816999999989e-01 -7.93749820e-01  -3.14199869e+00   3.34972430e-01
C     1.104511288930000e+01   2.441337166883815e+00   3.857042400000000e+00 -1.05565149e+00   3.71336571e+00  -3.89442240e-01
C     2.419681418700000e+00   3.119320765798837e+00   3.859865399999999e+00  1.12558500e-01   1.93161241e+00  -1.31553790e-01
C     3.701730679500000e+00   1.792469373562868e+00  -7.217210999999999e-01  2.81192656e+00   2.24354813e+00  -3.28771530e-01
C     5.015599540700000e+00   2.505841022829945e+00  -6.478713000000020e-01 -3.60568668e+00   7.18289540e-01  -9.54322920e-01
C     3.649365057600000e+00   2.367716465618504e+00   3.933536100000000e+00 -1.44494980e-01   3.47765507e+00   6.28983350e-01
C     4.840927422200000e+00   3.219204730817276e+00   4.055619600000000e+00  4.54767720e-01  -2.46916609e+00   2.57983900e-02
C     6.184294396099999e+00   1.791724430288593e+00  -6.212817000000008e-01  1.74755948e+00   1.06886295e+00   9.87648120e-01
C     7.399206916900000e+00   2.529262503895327e+00  -5.164022999999993e-01  1.84343288e+00   2.57613330e-01  -8.51080940e-01
C     6.056900731100001e+00   2.496904777582415e+00   4.194783600000000e+00  1.50610109e+00  -8.67763970e-01  -8.90553520e-01
C     7.321814100699999e+00   3.183536515531372e+00   4.141861799999999e+00 -1.19135760e-01  -8.13817400e-02  -4.95322150e-01
C     8.691556180199999e+00   1.867651176724133e+00  -4.922855999999989e-01 -3.19753220e+00  -3.91308588e+00  -9.39878290e-01
C     9.858665892700001e+00   2.503601752721670e+00  -7.499160000000025e-01  3.57261455e+00   2.78038500e-01   2.03304822e+00
C     8.585664858099999e+00   2.425823834204170e+00   3.929639700000000e+00 -2.31314994e+00   4.23315850e+00   1.00199481e+00
C     9.766298300100001e+00   3.179754758569989e+00   3.825224100000000e+00  1.97840325e+00   6.39287380e-01   4.73490880e-01
C     2.556332144700000e+00   3.986951005628791e+00  -9.124359000000020e-01 -1.33598195e+00  -2.09430661e+00   5.56217030e-01
C     3.729119984700000e+00   4.674348692817804e+00  -8.174336999999987e-01  2.87859818e+00   1.84337809e+00   2.98362610e-01
C     1.225151682170000e+01   4.625894248629253e+00   3.868348200000000e+00  9.88398900e-01  -2.98064410e+00  -7.19840400e-02
C     3.645598882700000e+00   5.262532471140745e+00   4.051868700000000e+00 -9.45814230e-01   2.90456574e+00  -2.91889290e-01
C     5.004788938099999e+00   3.935320561882309e+00  -7.411601999999995e-01 -2.18548241e+00   4.44526480e-01   3.80109300e-01
C     6.191356374600000e+00   4.666753157605739e+00  -6.672030000000007e-01  1.71823753e+00   3.56999520e-01  -4.80938790e-01
C     4.857739856100000e+00   4.625575401977930e+00   4.086829500000000e+00  1.68914911e+00  -7.65600040e-01   1.14387434e+00
C     6.113128416399999e+00   5.366881143178755e+00   4.352645099999999e+00 -1.73307979e+00  -1.28361758e+00  -1.48436567e+00
C     7.429344746400000e+00   3.950321980883678e+00  -6.580878000000006e-01 -3.04623970e-01  -6.09583020e-01   1.16982990e+00
C     8.673476391199999e+00   4.638984637085199e+00  -6.069819000000010e-01  7.76822330e-01  -1.04364105e+00  -2.35730110e-01
C     7.305569652099999e+00   4.625595212482244e+00   4.194332100000000e+00  1.78859772e+00  -1.07809711e+00   6.98553870e-01
C     8.587284511000000e+00   5.294608153937502e+00   4.152956100000001e+00 -2.07118182e+00   2.04999127e+00  -2.48810890e-01
C     9.922852717900000e+00   3.910608153212561e+00  -6.003989999999995e-01 -6.10609200e-02   7.13434840e-01  -2.22475364e+00
C     1.116709272410000e+01   4.599238019613837e+00  -8.604564000000003e-01 -1.29523979e+00   1.43017497e+00   4.91950310e-01
C     9.805337293899999e+00   4.663514737881200e+00   3.935024700000000e+00 -4.78426780e-01  -3.54441502e+00  -8.03835630e-01
C     1.103083812360000e+01   5.336531450570321e+00   3.825420000000000e+00  5.99192130e-01   7.79287400e-02   1.69907066e+00
C     3.732208728300000e+00   6.177102505480306e+00  -6.982584000000003e-01  1.12848887e+00  -4.67944803e+00  -9.35688560e-01
C     4.975199423199999e+00   6.797662198208481e+00  -6.655638000000010e-01  1.74762954e+00  -1.35695273e+00   6.77189530e-01
C     1.355355890870000e+01   6.713268852101812e+00   4.122542100000000e+00 -2.49454645e+00  -4.98310370e-01  -1.57518518e+00
C     4.863630910300000e+00   7.476646312981445e+00   4.039722900000000e+00  8.34605500e-01   5.22382820e-01   1.94405084e+00
C     6.250576421999999e+00   6.083347329843783e+00  -6.611648999999993e-01 -4.37417790e-01   5.82670370e-01   4.49295040e-01
C     7.526118772999999e+00   6.787927555481072e+00  -5.692443000000011e-01 -1.91058067e+00  -2.87402860e-01  -4.78162120e-01
C     6.080742901299999e+00   6.779354645129466e+00   4.356514199999999e+00  3.75178410e-01   1.21043280e-01  -9.03352220e-01
C     7.315102694500000e+00   7.487298899335455e+00   4.384907100000000e+00  2.20908630e-01  -1.23187901e+00  -9.77698870e-01
C     8.715774509399999e+00   6.027563511399830e+00  -6.518699999999988e-01  1.04680590e+00   1.68237065e+00   3.57661830e-01
C     1.000795255380000e+01   6.713156905674420e+00  -7.016013000000001e-01 -3.44847351e+00   2.24612599e+00   1.05667710e-01
C     8.548624880700000e+00   6.743602149810126e+00   4.204504800000000e+00 -3.39230170e-01  -1.17892738e+00   8.05936520e-01
C     9.796679227899999e+00   7.372639628313159e+00   4.133917500000000e+00  6.81789040e-01   2.23995075e+00   2.14988520e-01
C     1.117366914690000e+01   6.016855677648016e+00  -9.008672999999980e-01  1.38565886e+00   1.20536177e+00   1.56914081e+00
C     1.239680194970000e+01   6.838314292351141e+00  -7.427448000000005e-01 -1.94137092e+00  -1.85016861e+00  -9.34446920e-01
C     1.105088478540000e+01   6.742692318243481e+00   4.086123300000000e+00 -7.23143800e-01  -2.49435475e+00  -1.55699015e+00
C     1.227636737410000e+01   7.372890675221272e+00   4.014339900000000e+00  1.62296476e+00   3.45755670e+00   1.39717980e+00
