64
Lattice="9.86 0 0 4.93 8.53901048131456 0 0 0 30 " PBC="1 1 1" Properties=species:S:1:pos:R:3:force:R:3 Energy="-515.86222499"
C     4.968699119599999e+00   7.590971794084078e+00  -1.074438000000022e-01  5.89683930e-01  -5.53132880e-01  -6.42294210e-01
C     6.214126072600000e+00   8.276807696256299e+00  -1.518386999999990e-01 -1.14334590e-01   6.50542820e-01  -2.63516070e-01
C     9.770635023900001e+00   9.729769514128664e-01   3.605448600000000e+00  2.08806374e+00  -1.22588994e+00   2.52474400e-02
C     1.184546037900000e+00   1.656728310346710e+00   3.609973200000000e+00 -1.16491213e+00   1.19541588e+00   1.66618070e-01
C     7.454988979499999e+00   7.580387775984223e+00  -2.380524000000008e-01 -4.75316960e-01   7.79429910e-01   3.08654540e-01
C     8.684716939099999e+00   8.323072140427044e+00  -2.645021999999990e-01 -2.99793290e-01  -1.78145486e+00   8.14117460e-01
C     2.406408576900000e+00   9.668693387769416e-01   3.713611200000000e+00 -3.95985180e-01  -1.24193773e+00  -5.75612720e-01
C     3.640332459500000e+00   1.641143591539452e+00   3.642143100000000e+00  4.64077650e-01   1.10109347e+00   3.12294670e-01
C     9.898796634999998e+00   7.575834007085343e+00  -1.675706999999989e-01  1.13922409e+00   1.02929429e+00  -5.90383730e-01
C     1.115157323200000e+01   8.305332943885578e+00  -1.685468999999991e-01 -1.19266299e+00  -2.31616130e-01  -3.97352500e-01
C     4.887474312999999e+00   9.723986042330560e-01   3.680823600000000e+00  6.18702210e-01  -5.55359630e-01  -3.59394220e-01
C     6.150394828700001e+00   1.662833873620119e+00   3.620480100000000e+00 -1.25308531e+00   3.00815350e-01   6.42141430e-01
C     1.238670885930000e+01   7.629159017461582e+00  -2.495565000000006e-01 -6.82875450e-01  -1.41279518e+00   8.89692340e-01
C     1.360839234070000e+01   8.307801486425241e+00  -1.095012000000004e-01  6.09374400e-02  -1.88966450e-01  -4.05731500e-01
C     7.360395442600000e+00   9.138735926448128e-01   3.630056700000000e+00 -1.78872700e-01   1.73774122e+00  -2.13641440e-01
C     8.569170359899999e+00   1.685837797073030e+00   3.604761300000000e+00  1.60998000e-01  -1.19522906e+00  -5.78067120e-01
C     1.253631015300000e+00   1.164391679837786e+00  -2.072147999999991e-01  1.83583967e+00  -1.30713830e-01  -4.48533970e-01
C     2.521621444400000e+00   1.904114800836248e+00  -2.937689999999975e-01 -1.52790138e+00  -1.37598116e+00   5.57552290e-01
C     1.105632829420000e+01   3.105243438511614e+00   3.551311500000000e+00 -5.35820040e-01  -8.60893300e-01   9.27471200e-02
C     2.415003933300000e+00   3.788878923073244e+00   3.579430200000000e+00  3.47398310e-01   2.02972180e-01  -3.72027160e-01
C     3.741782788300000e+00   1.181414709570295e+00  -2.353616999999986e-01  5.39555230e-01   1.20143845e+00  -3.99633950e-01
C     4.983176606899999e+00   1.908839349944727e+00  -2.194958999999983e-01 -6.12797030e-01  -4.25855530e-01  -5.04905900e-02
C     3.648934077000000e+00   3.066406481826688e+00   3.596782200000000e+00 -7.15039750e-01   2.79127090e-01   2.76938070e-01
C     4.845247876999999e+00   3.796383944774221e+00   3.658764300000000e+00  2.44611041e+00  -9.03676570e-01  -2.06614580e-01
C     6.185437811000000e+00   1.173703897716750e+00  -1.865802000000016e-01  1.63802579e+00   9.45187580e-01  -1.26970370e-01
C     7.463880382400000e+00   1.877973986493405e+00  -2.345649000000023e-01 -1.77282806e+00   1.09791733e+00   6.04081410e-01
C     6.127353093299999e+00   3.102374245600229e+00   3.672464400000000e+00 -1.93470200e-01  -8.41404050e-01  -3.52494550e-01
C     7.373584030700000e+00   3.799585305193277e+00   3.632083500000000e+00 -5.82444920e-01  -1.89666230e-01  -6.38803490e-01
C     8.672087314399999e+00   1.181986908662560e+00  -1.324182000000000e-01 -3.62420050e-01  -8.53822570e-01  -6.76233380e-01
C     9.886989432900000e+00   1.836754218934034e+00  -2.574836999999981e-01  1.03982532e+00   2.60906903e+00   1.14761455e+00
C     8.614214389499999e+00   3.076487722989481e+00   3.499057200000000e+00 -7.30114370e-01   2.18846953e+00   1.04633943e+00
C     9.845355336400001e+00   3.854302174277755e+00   3.516238800000000e+00 -9.72790610e-01  -2.41066583e+00  -1.02543170e-01
C     2.498353915000000e+00   3.304621989670602e+00  -3.020445000000009e-01  7.07569910e-01   6.40751900e-01   3.00986000e-02
C     3.744288460800000e+00   4.019116518815799e+00  -3.082233000000016e-01 -4.13939320e-01   1.19956235e+00   3.22275460e-01
C     1.225510201630000e+01   5.207624413611620e+00   3.534580200000000e+00  1.49418579e+00   5.86485010e-01   3.18633990e-01
C     3.668431438200000e+00   5.898383140715665e+00   3.587709900000000e+00 -1.16669537e+00   5.91754030e-01  -2.85555710e-01
C     4.986788571400000e+00   3.336986547191898e+00  -2.625878999999998e-01 -1.63434907e+00  -1.44280728e+00   2.12620230e-01
C     6.179355177000000e+00   4.017745153732711e+00  -2.023022999999995e-01  2.58692466e+00   4.47836320e-01  -6.47203180e-01
C     4.894817301500000e+00   5.201408697103019e+00   3.650315700000000e+00 -8.81271940e-01   4.62680980e-01   3.53988810e-01
C     6.105498748399999e+00   5.932295991617194e+00   3.751521900000000e+00  4.06196960e-01  -4.05475840e-01  -9.29481790e-01
C     7.448633174200000e+00   3.323134052050613e+00  -2.413365000000027e-01 -7.13778880e-01  -8.99785700e-01   3.73208530e-01
C     8.670644402000001e+00   4.033011538229274e+00  -1.966850999999998e-01  6.47683670e-01  -5.56358220e-01   1.41061390e-01
C     7.329884116299999e+00   5.216267087678847e+00   3.625321500000000e+00  1.14306579e+00   5.47878120e-01   5.95338030e-01
C     8.577781196499998e+00   5.933771788798453e+00   3.588396300000000e+00 -8.64755930e-01   1.05122931e+00   1.90126480e-01
C     9.911395792299999e+00   3.289034452989886e+00  -2.034005999999984e-01 -6.37287650e-01   2.26502050e-01  -5.55910470e-01
C     1.112782177380000e+01   4.012813362839881e+00  -2.479677000000002e-01  5.95667550e-01   6.82971740e-01  -2.39962150e-01
C     9.810483425099999e+00   5.250181817162682e+00   3.555869100000000e+00  3.49060280e-01   3.46795930e-01  -3.62019520e-01
C     1.104881462910000e+01   5.961645680708317e+00   3.541051200000000e+00 -2.65159030e-01  -1.31031947e+00   1.75020160e-01
C     3.742460909800000e+00   5.469506728292007e+00  -2.553362999999997e-01 -5.52758260e-01  -7.54070430e-01  -6.07311450e-01
C     4.970645828699999e+00   6.169192136951843e+00  -2.489103000000021e-01  3.73758990e-01  -3.84053180e-01   7.42982360e-01
C     1.352402603950000e+01   7.327522229420192e+00   3.559066500000000e+00 -5.12084580e-01  -1.78076000e-02   4.39294650e-01
C     4.862070121600000e+00   8.063615758624024e+00   3.614480400000000e+00  5.93839910e-01   5.10478540e-01   3.96133210e-01
C     6.210939222000000e+00   5.420914806034729e+00  -2.377548000000012e-01 -5.83482010e-01   1.95997177e+00   2.93617760e-01
C     7.429887490099999e+00   6.178046236918556e+00  -2.035361999999985e-01  1.28384752e+00  -1.74015891e+00   1.25062580e-01
C     6.106232776099999e+00   7.354766454697262e+00   3.735812700000000e+00 -1.09185321e+00   3.20401800e-02  -3.34632200e-01
C     7.306174365899999e+00   8.068097287494243e+00   3.737505900000000e+00  1.73143437e+00   5.34037510e-01  -2.31885090e-01
C     8.690720446600000e+00   5.445359431335825e+00  -1.434497999999991e-01 -2.36175040e-01   8.95027700e-01  -6.81200370e-01
C     9.945771647000001e+00   6.165009985789054e+00  -1.957019999999972e-01 -1.62533575e+00  -3.30287980e-01   1.98058690e-01
C     8.560658567000001e+00   7.378624364588277e+00   3.649648800000000e+00  5.62401890e-01  -4.93661090e-01   4.22979080e-01
C     9.824937889299999e+00   8.094710992237468e+00   3.679717200000000e+00 -7.35765430e-01  -9.41391530e-01  -3.90944760e-01
C     1.117818261120000e+01   5.473524503503056e+00  -2.780190000000005e-01 -2.06289119e+00  -1.62785856e+00   4.85073490e-01
C     1.234995112440000e+01   6.190973871834752e+00  -2.882604000000022e-01  2.55959069e+00   3.33560980e-01   1.77956190e-01
C     1.105511935960000e+01   7.351204748035949e+00   3.609016800000000e+00 -3.48381560e-01   1.31767703e+00   3.21478200e-02
C     1.229214051470000e+01   8.049047267453993e+00   3.605973600000000e+00  3.84145600e-02  -4.05720450e-01  -2.15912330e-01
