52
Lattice="8.88768389401873 1.33226762955019e-15 0 4.44384194700937 7.69696003302603 0 0 0 30 " PBC="1 1 1" Properties=species:S:1:pos:R:3:force:R:3 Energy="-415.09713515"
C     1.229194020921598e+01   6.449316829700332e+00  -1.265703000000009e-01  3.45959922e+00   6.73536570e-01  -5.62573630e-01
C     8.629046693697227e+00   6.368584031702465e+00   1.327539000000000e-01  2.85933180e-01  -2.12205070e+00  -7.02614980e-01
C     1.000557939539138e+01   5.911931628869797e+00   2.344665000000000e-01 -1.34429271e+00   1.52800597e+00  -6.71134590e-01
C     1.031297154026965e+01   4.549795301458277e+00   1.303422000000000e-01  2.12446636e+00  -8.48731370e-01  -9.92400880e-01
C     6.249499847399017e+00   5.770322804298656e+00  -2.968377000000011e-01 -4.40433890e-01  -5.40465108e+00   5.38969830e-01
C     7.622050911201335e+00   5.394435295787181e+00  -1.157012999999978e-01 -1.94486180e-01   4.89500580e-01   9.71023620e-01
C     7.994609287470396e+00   4.049154464175757e+00  -1.084529999999972e-02 -1.10108504e+00  -2.84351048e+00  -1.33062907e+00
C     9.344537685087468e+00   3.596204914874322e+00  -1.168002000000001e-01 -1.76194245e+00  -1.38374380e+00   1.20028780e+00
C     9.643370812594124e+00   2.185009395745186e+00  -2.541110999999994e-01 -8.08247330e-01  -6.76553620e-01   1.12376283e+00
C     3.815796210349465e+00   5.115776863949070e+00  -1.676606999999990e-01  1.93256440e-01  -3.64808962e+00   5.54687830e-01
C     5.228362471047827e+00   4.685115016958504e+00  -2.395064999999974e-01 -4.80465420e-01   6.76786510e-01  -8.85729970e-01
C     5.587759787203666e+00   3.254810178193287e+00  -2.768786999999975e-01 -8.24720760e-01   2.99433181e+00   2.31475229e+00
C     7.009726240197509e+00   2.999585218136112e+00  -5.109750000000091e-02 -2.46075485e+00  -2.19247284e+00  -1.03129990e+00
C     7.278606362048746e+00   1.527034151823834e+00  -5.321849999999984e-02  8.65662400e-02   2.75460115e+00  -4.45630590e-01
C     8.590481918948660e+00   1.151013947721441e+00  -2.674079999999996e-01  2.02871024e+00  -8.90394970e-01   4.12334170e-01
C     2.769190909207059e+00   4.070741820093497e+00  -2.972279999999827e-02  1.63147496e+00   2.06984944e+00  -2.37821950e-01
C     3.100558559007098e+00   2.682840688677554e+00  -1.157307000000003e-01  1.79991955e+00   2.46096290e+00   1.01096711e+00
C     4.470829887455256e+00   2.310100544091946e+00  -8.747100000000074e-02  3.14669440e+00  -1.03596110e-01  -1.26630628e+00
C     4.897797420207660e+00   9.409709897059686e-01  -3.878970000000237e-02 -2.03441369e+00   1.11246598e+00   1.06580473e+00
C     6.262914691877927e+00   5.478463701161094e-01   2.366520000000000e-02 -1.23437276e+00   1.65950199e+00  -2.30024830e-01
C     1.101782535496098e+01   6.898067225487801e+00   7.126680000000001e-02 -1.55963389e+00  -1.46302410e+00   5.50460070e-01
C     2.101466327191129e+00   1.750351133167843e+00  -4.862910000000298e-02 -1.54087557e+00  -2.09191949e+00  -2.07791335e+00
C     2.444263138525242e+00   3.583077287725555e-01  -1.697033999999995e-01 -1.28346076e+00   2.65863730e-01   4.72415270e-01
C     3.812000366116645e+00   4.626565704432700e-03   4.125900000000000e-02  5.68641720e-01   2.70809040e-01  -7.50728440e-01
C     4.449005427514439e+00   7.396571386665992e+00  -3.197769000000008e-01  1.22447500e-01   2.78129222e+00   2.90137960e-01
C     5.810119019803855e+00   7.033460831804317e+00  -3.522162000000009e-01  1.66274987e+00   3.97058915e+00   7.49665530e-01
C     9.890926544254128e-01   1.228825672418323e+00   3.293058600000000e+00 -6.95930120e-01  -5.21212800e-02  -5.53176100e-01
C     3.373231010759753e+00   6.314372033123166e-01   3.366692400000000e+00 -1.24796846e+00  -2.85477800e-01  -3.66885150e-01
C     4.711915111194329e+00   9.933758190398240e-01   3.615214500000000e+00 -5.04825300e-01   1.59913700e-02  -9.43451640e-01
C     1.011438646661328e+01   7.673526635188664e+00   3.847467300000000e+00  2.55896778e+00   1.09780659e+00  -6.84062130e-01
C     7.078131319647960e+00   3.940400960158275e-01   3.744354600000000e+00  7.98423260e-01  -6.32839690e-01  -1.08132805e+00
C     1.263509657311480e+01   7.078394837793853e+00   3.563536800000000e+00 -1.83868065e+00   4.54251709e+00   3.12528320e-01
C     5.073970649887221e+00   7.510016264791360e+00   3.223643400000000e+00 -2.32636430e-01   6.67981450e-01   9.42172220e-01
C     6.068589531386312e+00   6.500774317193695e+00   3.165458100000000e+00  1.12288177e+00   1.30744824e+00   9.69448780e-01
C     7.437928142374307e+00   6.937250293851722e+00   3.345345000000000e+00  1.39369200e-02  -4.43015250e-01  -5.03589820e-01
C     8.432626924153324e+00   5.930708901650184e+00   3.520429200000000e+00  1.38665288e+00  -1.11575715e+00   1.36283617e+00
C     9.817335051295876e+00   6.313552075971169e+00   3.833610600000000e+00 -2.75369440e-01  -1.16727553e+00  -5.15976480e-01
C     1.094863051320969e+01   5.331290744184266e+00   3.852979200000000e+00 -3.20930423e+00   2.64100674e+00  -6.99280110e-01
C     3.385234097830469e+00   5.783403864839242e+00   3.717600000000000e+00  8.34750360e-01  -2.71328481e+00  -4.89362580e-01
C     4.396282262958040e+00   4.792693810936208e+00   3.500183700000000e+00 -1.68363759e+00  -1.10604414e+00  -4.86528700e-02
C     5.716683864357860e+00   5.136171268031760e+00   3.318957900000000e+00  8.72572570e-01   9.43675790e-01  -5.91211150e-01
C     6.686921473716441e+00   4.136151587033241e+00   3.325107300000000e+00  3.42955261e+00   1.96394800e-02   1.48404507e+00
C     8.109521841163982e+00   4.497060657387135e+00   3.552753600000000e+00 -1.92127275e+00   2.62917989e+00  -1.27119538e+00
C     9.145348646824964e+00   3.568212841546019e+00   3.606197100000000e+00  1.49270667e+00   5.33362460e-01  -5.79724310e-01
C     1.056313580026088e+01   4.045865553154938e+00   3.586069500000000e+00 -6.77052430e-01  -3.82805682e+00   8.55063660e-01
C     2.711521527383464e+00   3.021168571634635e+00   3.472517400000000e+00 -2.26262591e+00   3.77309500e-01  -1.23025718e+00
C     4.029047474258938e+00   3.421115468716685e+00   3.432401100000000e+00  2.11373109e+00  -1.46444033e+00   1.04376730e-01
C     5.061995025751485e+00   2.345365782830998e+00   3.381246900000000e+00 -1.56855822e+00   1.81394994e+00   1.53228231e+00
C     6.383300193592440e+00   2.778833864478901e+00   3.479892300000000e+00  4.53943300e-02  -1.02219131e+00  -1.05057971e+00
C     7.375605699849068e+00   1.765380140352821e+00   3.502600200000000e+00  2.76542226e+00   3.48163780e-01   1.17712535e+00
C     8.814471462074023e+00   2.206188350963734e+00   3.486317400000000e+00 -3.42572210e-01  -1.92104929e+00  -4.94662690e-01
C     2.375515837962104e+00   1.663834069707431e+00   3.171288600000000e+00 -9.96512010e-01  -1.22179590e+00   2.25905642e+00
