32
Lattice="9.86 0 0 4.93 8.53901048131456 0 0 0 30 " PBC="1 1 1" Properties=species:S:1:pos:R:3:force:R:3 Energy="-256.95769861"
C     4.999309588200000e+00   7.024833520677772e+00   9.722880000000000e-02  9.10364970e-01  -2.65390590e-01  -1.99190990e-01
C     6.275167163399999e+00   7.734443223487781e+00   1.084236000000000e-01 -1.75915382e+00   3.31954950e-01  -8.21129440e-01
C     7.501794646000000e+00   7.003047089339101e+00   1.120449000000000e-01 -1.50652683e+00   2.49550259e+00   2.71644980e-01
C     8.697329801799999e+00   7.781931734810834e+00   1.023042000000000e-01  1.23679610e-01  -2.49645206e+00  -2.18449010e-01
C     9.905533332099999e+00   7.061906744748055e+00   9.800040000000000e-02  1.11756372e+00  -1.33782927e+00  -3.22166680e-01
C     1.115641784440000e+01   7.741685158275869e+00   7.693770000000000e-02 -9.35549420e-01   9.66258250e-01   2.92639010e-01
C     1.239059005110000e+01   7.031346480141183e+00   4.342890000000001e-02 -5.78412980e-01  -3.78869500e-02  -3.75604470e-01
C     1.362809281790000e+01   7.722662206898839e+00   1.627230000000000e-02  3.26012170e-01   8.56418710e-01   2.46450720e-01
C     1.305034153300000e+00   6.340369837489688e-01  -6.907619999999781e-02 -2.73849430e-01  -1.01402595e+00   3.79328880e-01
C     2.548277362800000e+00   1.314865354005403e+00  -1.007552999999994e-01 -1.95402783e+00   1.59318533e+00   1.66032000e-03
C     3.744548173200000e+00   6.090457763870480e-01  -3.896099999998626e-03  1.12978211e+00   2.93673077e+00   1.23569570e-01
C     4.972084846400000e+00   1.401573711243306e+00   3.209610000000000e-02  3.27303770e-01  -2.36821923e+00   6.00364520e-01
C     6.173530036899999e+00   6.508169932432167e-01   1.421088000000000e-01  1.76829027e+00  -7.40025380e-01  -9.23047470e-01
C     7.451342850100000e+00   1.308735966892755e+00   8.218350000000001e-02 -3.22620910e-01   1.72010888e+00   1.48202340e-01
C     8.694224986399998e+00   6.275735505463423e-01  -3.067649999999844e-02 -4.84905660e-01  -7.71991330e-01   4.90521340e-01
C     9.905668216899999e+00   1.348465591733260e+00  -9.957840000000218e-02  1.37143894e+00   9.17020000e-02  -2.32391190e-01
C     2.494834141500000e+00   2.775880910392190e+00  -1.277715000000015e-01  1.49140117e+00  -1.70346833e+00   5.47626000e-03
C     3.711939477000000e+00   3.445542475083509e+00  -6.730499999999751e-03  2.41287853e+00   2.38021531e+00   5.03260500e-02
C     5.019126314799999e+00   2.796582631229587e+00   6.370320000000000e-02 -2.04499529e+00  -1.81324500e-02  -3.63826050e-01
C     6.251281806400000e+00   3.497209295014635e+00   1.091925000000000e-01  3.59518520e-01  -1.09844108e+00   7.51133270e-01
C     7.486076967899999e+00   2.761607612814450e+00   1.418574000000000e-01 -1.97647170e-01  -6.32496550e-01  -6.77839240e-01
C     8.730742334500000e+00   3.472151654151180e+00   6.136230000000000e-02 -1.21795118e+00   4.07939990e-01  -2.54182280e-01
C     9.944289491799999e+00   2.791240797053509e+00  -1.549242000000000e-01 -9.40006530e-01  -1.43969619e+00   8.39587810e-01
C     1.115678133330000e+01   3.496258134637268e+00  -1.706456999999979e-01 -5.02532080e-01  -5.54057080e-01   1.88407740e-01
C     3.763205265200000e+00   4.909364548044757e+00   3.407040000000000e-02 -1.93130573e+00  -1.43651554e+00  -4.86836480e-01
C     4.988145849700000e+00   5.584857915333497e+00   1.068156000000000e-01  5.80637450e-01   9.92878140e-01   3.68936920e-01
C     6.242961248199999e+00   4.891409741488670e+00   1.896012000000000e-01 -1.26870206e+00   8.58768060e-01  -7.40732240e-01
C     7.429626298699999e+00   5.627495414802862e+00   1.470468000000000e-01  2.42274725e+00  -1.86698156e+00   4.33960860e-01
C     8.696040656099999e+00   4.901661079740225e+00   1.201830000000000e-01 -1.48419793e+00  -3.99678500e-01  -4.34194260e-01
C     9.884236422299999e+00   5.604592422453825e+00   2.523300000000000e-02  1.29394797e+00   1.32035167e+00   2.49073220e-01
C     1.112280362540000e+01   4.889084056594338e+00  -7.425509999999846e-02  4.53972350e-01   1.44604785e+00  -3.67368900e-02
C     1.235160651980000e+01   5.613592966450269e+00  -4.734090000000180e-02  1.31284603e+00  -2.16774460e-01   6.45042900e-01
