32
Lattice="9.86 0 0 4.93 8.53901048131456 0 0 0 30 " PBC="1 1 1" Properties=species:S:1:pos:R:3:force:R:3 Energy="-257.22013412"
C     5.006080105100000e+00   7.228012187670674e+00  -2.162828999999995e-01 -1.23613078e+00   1.19167433e+00   3.71539000e-01
C     6.216680354900000e+00   7.953074425405710e+00  -1.565181000000031e-01  5.55009450e-01   4.71951460e-01  -2.85753970e-01
C     7.452306615800000e+00   7.240281806439282e+00  -2.445699000000019e-01  1.22202030e-01   6.28035380e-01  -6.48804700e-02
C     8.679831210500000e+00   7.948402561991892e+00  -2.330787000000001e-01 -1.13889070e-01   1.12405363e+00   7.09146500e-01
C     9.915213436399998e+00   7.283461191513707e+00  -1.704903000000009e-01 -2.42844800e-02  -1.46226804e+00  -5.66468410e-01
C     1.116190380050000e+01   7.985202110776290e+00  -2.018219999999999e-01 -8.13209130e-01  -1.36302015e+00   3.19260210e-01
C     1.234967243150000e+01   7.226499075013619e+00  -1.310429999999982e-01  1.77864637e+00   3.11574530e-01   9.92181400e-02
C     1.361474863900000e+01   7.940689871556041e+00  -1.470938999999980e-01 -3.02463270e-01   4.20921470e-01  -7.96389600e-02
C     1.306281640500000e+00   8.579713381255016e-01  -2.905379999999980e-02 -2.38211800e-01  -1.15273335e+00   3.50577200e-01
C     2.529286016800000e+00   1.553639313134709e+00   7.202159999999999e-02  4.33449340e-01  -2.54053140e-01  -7.56301080e-01
C     3.743339682300000e+00   8.290719110569895e-01  -1.061222999999991e-01  8.01518090e-01   5.99275490e-01  -2.57084300e-02
C     4.996983614199999e+00   1.554269662888342e+00  -1.749234000000008e-01 -1.07957495e+00  -5.47948820e-01  -1.03857750e-01
C     6.230552438200000e+00   8.437729276696719e-01  -2.557155000000009e-01 -9.42226100e-02   7.16745340e-01   5.80808430e-01
C     7.451894171999999e+00   1.545774372142000e+00  -1.765878000000001e-01  6.60962080e-01   1.22912374e+00  -4.44185980e-01
C     8.686379236499999e+00   8.528298291352840e-01  -1.149768000000009e-01  8.28016930e-01  -8.65052720e-01   4.08853600e-02
C     9.957322242599998e+00   1.572825957342640e+00  -7.787699999997955e-03 -2.15652719e+00  -6.49326200e-01  -2.29207300e-02
C     2.525487649000000e+00   2.973625521895829e+00   1.093338000000000e-01 -8.33473300e-01   1.89152480e-01  -1.05261270e-01
C     3.726730906700000e+00   3.680513073554918e+00  -4.789859999999990e-02  1.51508214e+00   4.52826720e-01  -1.39307800e-02
C     4.953474688000000e+00   2.963189655627801e+00  -1.777532999999991e-01  1.70161489e+00   9.90907250e-01  -1.00941160e-01
C     6.234146013799999e+00   3.702834986240791e+00  -2.945700000000002e-01 -1.50027511e+00  -3.56021060e-01   1.07082420e-01
C     7.467253537700000e+00   3.000144187452412e+00  -2.516268000000004e-01 -1.05364345e+00  -1.20882827e+00   2.13400360e-01
C     8.671252813300001e+00   3.703528268501661e+00  -1.863221999999993e-01  1.54029302e+00  -9.38894980e-01   4.39888870e-01
C     9.907015832399999e+00   2.983424890322677e+00   5.963670000000000e-02  2.53272280e-01   5.26564960e-01  -8.27479990e-01
C     1.114611276400000e+01   3.689333785990653e+00   1.121856000000000e-01 -4.17319850e-01   5.00241790e-01  -4.57388210e-01
C     3.771631276100000e+00   5.112809461384424e+00  -9.143219999999985e-02 -1.37366502e+00  -6.19367960e-01   4.37932300e-02
C     4.980807988400000e+00   5.824084698188557e+00  -2.596685999999977e-01  5.62262040e-01  -4.57378870e-01   2.32359270e-01
C     6.217064648400000e+00   5.128605862261481e+00  -3.406911000000008e-01  1.00691862e+00  -3.59167660e-01   2.32875340e-01
C     7.488125432200000e+00   5.845532130811173e+00  -3.336380999999982e-01 -1.70710585e+00  -1.45990689e+00  -9.39852800e-02
C     8.706237572300001e+00   5.099612591467794e+00  -2.867531999999997e-01 -1.09251477e+00   1.23434564e+00   5.71724610e-01
C     9.884563084100000e+00   5.836805347490718e+00  -1.397574000000006e-01  2.21902528e+00   4.98317480e-01  -1.92137970e-01
C     1.113926238110000e+01   5.127837436708386e+00  -2.946749999999909e-02 -8.61090850e-01  -1.34138655e+00   6.49649710e-01
C     1.236526266910000e+01   5.786045541252776e+00  -1.166130000000010e-02  9.19328920e-01   1.94964300e+00  -8.21368210e-01
