32
Lattice="9.86 0 0 4.93 8.53901048131456 0 0 0 30 " PBC="1 1 1" Properties=species:S:1:pos:R:3:force:R:3 Energy="-257.32587145"
C     9.822258483599999e+00   1.252493518195920e-01   3.826079100000000e+00 -9.17065440e-01   2.31576520e-01  -4.20608520e-01
C     1.178317574500000e+00   8.307163536952280e-01   3.748096500000000e+00  1.25231469e+00  -9.15203680e-01   6.85995200e-02
C     2.413773109500000e+00   8.544962170304560e-02   3.830985600000000e+00  8.84977280e-01   5.91602010e-01   1.75878830e-01
C     3.674658964899999e+00   7.869274540527400e-01   3.845772000000000e+00 -3.20417070e-01   4.35865530e-01  -3.31765220e-01
C     4.942799561799999e+00   1.094841183307872e-01   3.901308600000000e+00 -2.31430670e+00  -1.14307980e-01  -1.18681140e-01
C     6.144041537700000e+00   8.254783538865864e-01   3.840291900000000e+00  5.79669220e-01  -9.41211930e-01  -5.03692400e-02
C     7.359818681899999e+00   7.443361506300719e-02   3.769068600000000e+00  1.11544809e+00   8.17132630e-01   4.87030520e-01
C     8.582637739500001e+00   8.258395540298904e-01   3.772293300000000e+00  8.19312200e-02   3.60410900e-01  -3.33728870e-01
C     1.106863283470000e+01   2.233888396920180e+00   3.602280900000000e+00  2.91862330e-01   3.36789690e-01   2.72462720e-01
C     2.446141961199999e+00   2.938508328956200e+00   3.615926700000000e+00 -2.25440870e-01  -1.42556510e-01   1.58648190e-01
C     3.668901957400000e+00   2.209701735125685e+00   3.728075700000000e+00 -1.23228160e-01   2.64814260e-01   1.82777400e-01
C     4.888409780500000e+00   2.934158471627583e+00   3.795994800000000e+00  6.88363810e-01  -1.66719600e-02   4.64840880e-01
C     6.134014657200000e+00   2.231587389766134e+00   3.860933100000000e+00  1.37723360e-01   7.85741840e-01  -5.23442240e-01
C     7.368153241299999e+00   2.968721312006851e+00   3.801209400000000e+00 -1.83040990e-01  -1.56276055e+00   4.50331810e-01
C     8.599721964299999e+00   2.273405912740362e+00   3.705657300000000e+00  3.40808430e-01  -1.21584450e+00   8.86524300e-02
C     9.860450059699998e+00   2.962582275812359e+00   3.606951900000000e+00 -1.44450720e+00   1.24674680e-01   6.80854430e-01
C     1.229878748580000e+01   4.365953875712229e+00   3.635498400000000e+00 -5.69513460e-01  -4.48671500e-02   4.25104000e-03
C     3.662991479000000e+00   5.046348549626384e+00   3.738342000000000e+00  8.98394110e-01   9.61009880e-01   1.73688740e-01
C     4.891284118400000e+00   4.363732537525961e+00   3.850929600000000e+00  6.72791670e-01  -6.44623030e-01  -3.98328080e-01
C     6.133354283699999e+00   5.076666562505938e+00   3.929131200000000e+00 -7.08130840e-01   7.52064810e-01   2.46723870e-01
C     7.374217338499999e+00   4.344863288337572e+00   3.934372800000000e+00 -1.14588528e+00   2.10738642e+00  -8.87196190e-01
C     8.570787301299999e+00   5.079715843148346e+00   3.833358300000000e+00  1.78355778e+00  -1.00300850e-01   2.89146390e-01
C     9.833141212099999e+00   4.383048035402036e+00   3.711980400000000e+00  8.62437500e-02   3.95916720e-01  -4.22571440e-01
C     1.107050963640000e+01   5.110283536694336e+00   3.667639800000000e+00 -6.14162820e-01  -2.57420640e-01   8.12605300e-02
C     1.356570504830000e+01   6.465556256802042e+00   3.772570500000000e+00 -1.35846337e+00   9.57967970e-01   1.50677830e-01
C     4.880101547300000e+00   7.252940291745148e+00   3.864217800000000e+00  8.91659100e-01  -1.27655827e+00   7.50808200e-02
C     6.105106172499999e+00   6.542075866735209e+00   3.943270800000000e+00  1.09332206e+00  -1.90325281e+00  -3.19501750e-01
C     7.371760522300000e+00   7.200742516142375e+00   3.917566799999999e+00 -1.31568536e+00   1.00404538e+00   2.15695500e-02
C     8.591593725399999e+00   6.501682163049673e+00   3.890769300000000e+00  3.15254210e-01  -1.66824600e-02   1.89996490e-01
C     9.823999020100000e+00   7.234676714570105e+00   3.900889800000000e+00  5.92579340e-01  -4.17599170e-01  -7.36023860e-01
C     1.105516121530000e+01   6.549010567926226e+00   3.739485600000000e+00  8.03570060e-01  -1.96068433e+00   5.19062830e-01
C     1.233534402740000e+01   7.178169214987972e+00   3.764094900000000e+00 -1.27062295e+00   1.40354657e+00  -2.39318280e-01
