32
Lattice="9.86 0 0 4.93 8.53901048131456 0 0 0 30 " PBC="1 1 1" Properties=species:S:1:pos:R:3:force:R:3 Energy="-256.60577833"
C     4.965897252700000e+00   6.818674055906513e+00  -1.123152000000012e-01  2.08708425e+00   1.83945802e+00   7.36705150e-01
C     6.226957679400000e+00   7.537807060934550e+00  -3.517349999999908e-02 -4.05011770e-01   1.29095613e+00   2.52149260e-01
C     7.497930018999999e+00   6.870704381513772e+00  -6.693900000000141e-02 -2.91980582e+00  -1.84141455e+00   2.18430690e-01
C     8.683498193799998e+00   7.545411391327409e+00   2.730150000000000e-02  2.30061635e+00   5.60593460e-01  -8.26700590e-01
C     9.929204973599999e+00   6.853031191523317e+00  -6.896670000000071e-02  8.35955690e-01  -2.35036769e+00   1.07792696e+00
C     1.117783672240000e+01   7.555431066224641e+00  -8.101199999998698e-03 -9.19770940e-01  -1.58561290e-01  -3.05247920e-01
C     1.241403624370000e+01   6.843688916327463e+00   2.868360000000000e-02 -6.92599990e-01   2.14068862e+00   1.55142540e-01
C     1.363195675470000e+01   7.595132426940459e+00   5.352000000000000e-03 -3.88056100e-02  -2.33152997e+00  -2.23002150e-01
C     1.283997399600000e+00   4.538668512746368e-01   1.315890000000000e-01 -5.99666300e-01  -9.68382900e-01  -1.19440495e+00
C     2.523990013600000e+00   1.140319782344142e+00   4.435620000000000e-02  1.66586630e-01   1.11430896e+00   7.79114200e-01
C     3.760074961699999e+00   4.156753583918936e-01   1.979910000000000e-02 -1.99634070e-01   1.36213990e+00  -3.37549520e-01
C     4.985573671500000e+00   1.149074744399182e+00  -8.301990000000004e-02  6.51238380e-01  -1.00539034e+00   4.03362800e-02
C     6.243079420300000e+00   4.403503661957400e-01  -5.510549999999981e-02 -1.14667789e+00  -3.52316070e-01   2.70925170e-01
C     7.443289990899999e+00   1.148697490916175e+00   2.733960000000000e-02  3.34357830e-01   7.91304230e-01  -4.03611860e-01
C     8.690284388100000e+00   4.462697790406856e-01   7.573980000000001e-02 -1.18230701e+00   8.13169270e-01  -2.86501250e-01
C     9.869423892200000e+00   1.182297387083613e+00   1.068165000000000e-01  2.96600612e+00  -1.99489878e+00   2.74485200e-01
C     2.550108857800000e+00   2.612125830104191e+00   9.874350000000000e-02  7.79408010e-01  -2.10131117e+00  -1.59139300e-02
C     3.801628797800000e+00   3.291054014358510e+00   3.775170000000000e-02 -7.78245690e-01   7.57498120e-01  -7.97838010e-01
C     5.025192038899999e+00   2.551187437983985e+00  -1.453224000000013e-01 -1.39677406e+00   1.01553827e+00   1.25750925e+00
C     6.239455574499999e+00   3.279452316989649e+00  -7.670880000000224e-02 -1.46192078e+00   6.10781120e-01  -6.64267790e-01
C     7.420508115799999e+00   2.592516846437919e+00  -3.439470000000000e-02  2.80740463e+00  -2.01263275e+00   7.00568010e-01
C     8.693247465999999e+00   3.248770029923018e+00   5.411550000000000e-02 -1.11983092e+00   1.32129729e+00  -4.46401050e-01
C     9.914240007899998e+00   2.553992844487084e+00   1.095930000000000e-01  9.40383020e-01   2.12327165e+00   2.64490280e-01
C     1.119636031000000e+01   3.306984904650627e+00   1.617975000000000e-01 -1.42025341e+00  -2.73317862e+00  -2.16144120e-01
C     3.765482284300000e+00   4.749848574119449e+00   5.858100000000000e-03  4.24331590e-01  -1.65051436e+00   3.94361420e-01
C     5.016223037800000e+00   5.409521545911684e+00  -1.122042000000008e-01 -2.16658988e+00   6.41865910e-01   1.15618650e-01
C     6.197554272000000e+00   4.694615265681141e+00  -1.066992000000013e-01  2.79793551e+00   8.99844640e-01  -1.16027380e-01
C     7.461834678900000e+00   5.441793625949480e+00  -1.031253000000021e-01 -2.44793100e-02  -1.40388431e+00   2.22734390e-01
C     8.687128547200000e+00   4.679269126826694e+00  -1.784099999999711e-02  3.62021550e-01   1.65865440e-01  -2.06004400e-02
C     9.959772847000000e+00   5.328232044724389e+00   5.665800000000000e-03 -1.71331872e+00   3.78273895e+00  -3.93690000e-04
C     1.117902391570000e+01   4.667821814767311e+00   1.451832000000000e-01  7.01366400e-01   2.90512471e+00  -3.21551030e-01
C     1.240461072460000e+01   5.476758909892670e+00   1.250076000000000e-01  3.09962100e-02  -3.23206188e+00  -5.84341780e-01
