32
Lattice="9.86 0 0 4.93 8.53901048131456 0 0 0 30 " PBC="1 1 1" Properties=species:S:1:pos:R:3:force:R:3 Energy="-256.67726099"
C     9.849316492800000e+00   4.794878106594576e-01   3.401742300000000e+00 -5.98860190e-01   1.61145717e+00   2.35046420e-01
C     1.208091077000000e+00   1.256419413654205e+00   3.412559400000000e+00 -1.33995310e-01  -3.54111560e-01  -1.00587967e+00
C     2.449886049700000e+00   5.384096300647063e-01   3.466013400000000e+00 -7.80267400e-01  -1.38523480e-01   6.81174910e-01
C     3.664099743000000e+00   1.270960665380806e+00   3.422788800000000e+00  3.79592670e-01  -1.48567661e+00  -4.02152970e-01
C     4.900287728100000e+00   5.329134105791496e-01   3.415753800000000e+00 -6.85368120e-01  -1.04035343e+00   4.60717420e-01
C     6.111284251300000e+00   1.245925225944599e+00   3.450413400000000e+00  2.75283760e-01  -9.80025710e-01  -8.81650580e-01
C     7.344407403300000e+00   5.411798558446280e-01   3.327331200000000e+00  8.89796800e-02   1.65459130e-01   2.85600980e-01
C     8.592188382000000e+00   1.200814231309493e+00   3.306742800000000e+00  5.88348170e-01   8.35591960e-01   6.65880170e-01
C     1.105710491710000e+01   2.694343436340556e+00   3.133832100000000e+00 -3.13296120e-01  -1.86763902e+00   4.66115180e-01
C     2.432183208500000e+00   3.378531480270346e+00   3.032535000000000e+00  9.66609500e-02  -1.11218600e-01   6.22835930e-01
C     3.653367034400000e+00   2.670350268523538e+00   3.263385000000000e+00 -1.44751030e-01   2.88319410e-01  -4.71098500e-02
C     4.870458911000000e+00   3.361208987440304e+00   3.379262700000000e+00  5.24730460e-01   2.16846356e+00  -9.04377400e-02
C     6.093550449700000e+00   2.628892604132194e+00   3.447771000000000e+00  8.06725680e-01   2.70791214e+00   2.63228990e-01
C     7.359854029999999e+00   3.371156251528665e+00   3.447052200000000e+00 -7.71238120e-01  -6.40086440e-01   2.32532770e-01
C     8.568561554199999e+00   2.639685657208600e+00   3.350418000000000e+00  1.25807737e+00   1.03288520e-01  -8.07583330e-01
C     9.808182150400000e+00   3.370081019329024e+00   3.140868300000000e+00 -3.84182970e-01  -2.23269430e-01   5.13430930e-01
C     1.228573935340000e+01   4.790725073457523e+00   2.960431500000000e+00  1.07727656e+00   1.61518850e-01   5.04721840e-01
C     3.648101350700000e+00   5.551396436525940e+00   3.131957400000000e+00  1.19128000e-01  -8.97123750e-01   5.61171650e-01
C     4.873644381200000e+00   4.872888798537760e+00   3.395432100000000e+00  1.34945770e-01  -3.20057528e+00  -6.88580670e-01
C     6.122595594000000e+00   5.516449767625597e+00   3.554715000000000e+00  6.59219460e-01  -4.16276420e-01   3.76744650e-01
C     7.391668207400000e+00   4.792151429768102e+00   3.561215400000000e+00 -1.39926234e+00  -2.62550520e-01  -7.69257010e-01
C     8.603162463399999e+00   5.514169681047227e+00   3.433042500000000e+00  2.91586420e-01  -1.07082172e+00  -5.68714700e-02
C     9.832983550700000e+00   4.790331339684290e+00   3.125523300000000e+00 -1.59084571e+00  -1.34685970e-01   8.70692000e-01
C     1.105915786770000e+01   5.455333251746779e+00   3.046858800000000e+00 -8.55674200e-02   2.38593672e+00  -3.02467250e-01
C     1.351827588470000e+01   6.952536195256652e+00   3.247451100000000e+00 -6.50862260e-01   4.84500230e-01   3.04905560e-01
C     4.901021164199999e+00   7.597926988900248e+00   3.509832300000000e+00 -5.14470660e-01   1.42185314e+00  -8.38930500e-01
C     6.122551174700000e+00   6.922211265778609e+00   3.626314800000000e+00  8.66189920e-01   1.19539640e-01  -2.12063530e-01
C     7.366976746100000e+00   7.640448272436981e+00   3.636728100000000e+00 -6.89834720e-01   7.14617410e-01  -3.46171810e-01
C     8.568864650600000e+00   6.912970092466838e+00   3.564028800000000e+00  1.69651273e+00   6.08691090e-01  -8.79995760e-01
C     9.827834560099999e+00   7.601901812888583e+00   3.384918000000000e+00 -6.40732720e-01   1.32796132e+00  -6.78336700e-02
C     1.104204145000000e+01   6.906799291153361e+00   3.143842200000000e+00  6.31728250e-01   5.54565630e-01   8.17482180e-01
C     1.227329238520000e+01   7.697747509070820e+00   3.223082700000000e+00 -1.11450750e-01  -2.83673799e+00  -4.65295790e-01
