32
Lattice="9.86 0 0 4.93 8.53901048131456 0 0 0 30 " PBC="1 1 1" Properties=species:S:1:pos:R:3:force:R:3 Energy="-256.91259025"
C     9.841535227300000e+00   2.668978732660240e-02   3.678357300000000e+00  1.18254110e-01   2.99441230e-01  -6.95814730e-01
C     1.221888520100000e+00   7.517781544337064e-01   3.646964400000000e+00  4.71023230e-01  -1.54791390e-01  -9.59586300e-02
C     2.501201384400000e+00   3.998237955071361e-02   3.551191800000000e+00 -4.20267804e+00  -1.12040051e+00   6.99981900e-02
C     3.664403677500000e+00   7.388217430521928e-01   3.584126700000000e+00  1.93848358e+00   8.54277730e-01   1.71131270e-01
C     4.892060544100000e+00   5.817311896636240e-02   3.603553500000000e+00  2.35306002e+00  -1.84508609e+00  -3.13863490e-01
C     6.190145813100000e+00   7.145615603774648e-01   3.598947900000000e+00 -3.37223948e+00   2.02411450e+00  -2.46152860e-01
C     7.390981655600000e+00   5.643790664672160e-02   3.590808600000000e+00 -1.46719980e-01  -2.91313606e+00  -2.96540550e-01
C     8.583636310999999e+00   7.311114435392768e-01   3.591797100000000e+00  2.91834317e+00   1.51784642e+00   7.01642920e-01
C     1.108834346770000e+01   2.179868908821604e+00   3.680528400000000e+00  1.77497220e-01  -5.92187050e-01  -1.13218150e-01
C     2.504080997400000e+00   2.856380980060608e+00   3.653491200000000e+00 -3.52559916e+00   2.25018252e+00   4.17674760e-01
C     3.658415748800000e+00   2.149225388862552e+00   3.642782400000000e+00  2.65092017e+00   5.16167580e-01  -2.21866530e-01
C     4.910617852900000e+00   2.886679182435849e+00   3.626986500000000e+00  4.11878340e-01  -1.42419554e+00  -2.05241150e-01
C     6.146893345500000e+00   2.154526150398222e+00   3.552034200000000e+00  3.51439350e-01  -1.33081320e-01   6.38329770e-01
C     7.375990955299999e+00   2.869496985547993e+00   3.572366700000000e+00 -4.46507800e-02   1.12360953e+00  -1.24638700e-02
C     8.634450708399999e+00   2.169139215202960e+00   3.620979000000000e+00 -1.32475716e+00  -9.82603500e-02  -1.82527860e-01
C     9.845395811700000e+00   2.886256330636879e+00   3.680290800000000e+00  1.08681357e+00   4.76984940e-01  -1.67588390e-01
C     1.231922480080000e+01   4.320852871719384e+00   3.689423400000000e+00  2.67597900e-02  -1.22663393e+00  -1.96227080e-01
C     3.666988821600000e+00   5.022414727932201e+00   3.619326600000000e+00  1.51501946e+00  -1.10068850e+00   3.51385150e-01
C     4.947574463999999e+00   4.285061950852882e+00   3.626333100000000e+00 -2.39119046e+00   1.27894903e+00  -2.76210200e-01
C     6.133310899700000e+00   5.042634848578527e+00   3.555454500000000e+00  3.60754980e-01  -1.07682263e+00  -1.26623070e-01
C     7.333705310000000e+00   4.324980287824997e+00   3.565277700000000e+00  3.08428540e+00  -7.78257350e-01   2.58981200e-02
C     8.640795717000000e+00   5.038430495988489e+00   3.595579200000000e+00 -1.72311584e+00  -1.05227422e+00  -1.44392910e-01
C     9.884231541600000e+00   4.327514324575042e+00   3.659021100000000e+00 -2.55958027e+00  -9.39543800e-01   3.05358640e-01
C     1.107081376810000e+01   5.037380795430183e+00   3.725006700000000e+00  1.90772486e+00  -1.93942846e+00  -4.37965540e-01
C     1.354705826000000e+01   6.426138562014372e+00   3.607785900000000e+00  6.75430380e-01   8.95718610e-01  -9.69532000e-03
C     4.931368420100000e+00   7.147138877854175e+00   3.633302700000000e+00 -8.78863280e-01   1.90923800e-01  -5.48686330e-01
C     6.140823381600000e+00   6.447906378310196e+00   3.496637100000000e+00 -9.43592400e-02   3.50411760e-01   6.55950950e-01
C     7.359263711799999e+00   7.146136824974348e+00   3.472551900000000e+00  1.22738130e+00   8.16049040e-01   5.05585540e-01
C     8.594499418100000e+00   6.451130964837759e+00   3.552648300000000e+00  1.20386121e+00  -1.92520280e-01  -1.81236190e-01
C     9.851121020699999e+00   7.153620499149124e+00   3.586470300000000e+00 -2.43242320e-01   2.43690420e-01   3.82245930e-01
C     1.110349961880000e+01   6.401182620765733e+00   3.665692800000000e+00 -6.48046710e-01   3.73615355e+00  -6.45056930e-01
C     1.234456475430000e+01   7.143987812206846e+00   3.568629900000000e+00 -1.32388743e+00   1.27868000e-02   8.92128530e-01
