4
Lattice="2.0171880000000004 0.0 0.0 -1.0085939999999998 1.7469360522091246 0.0 0.0 0.0 6.327801959727809" Properties=species:S:1:pos:R:3 pbc="T T T"
C        0.00000000       0.00000000       0.00000000
C        0.00000000       1.16462403       0.00000000
C        0.00000000       1.16462403       3.16390098
C        1.00859400       0.58231202       3.16390098
