4
Lattice="2.5301160000000005 0.0 0.0 -1.2650579999999996 2.1911447305214695 0.0 0.0 0.0 6.810655656626284" Properties=species:S:1:pos:R:3 pbc="T T T"
C        0.00000000       0.00000000       0.00000000
C        0.00000000       1.46076315       0.00000000
C        0.00000000       1.46076315       3.40532783
C        1.26505800       0.73038158       3.40532783
