4
Lattice="2.313108 0.0 0.0 -1.1565539999999996 2.0032102896970154 0.0 0.0 0.0 6.7" Properties=species:S:1:pos:R:3 pbc="T T T"
C        0.00000000       0.00000000       0.00000000
C        0.00000000       1.33547353       0.00000000
C        0.00000000       1.33547353       3.35000000
C        1.15655400       0.66773676       3.35000000
