4
Lattice="2.549844 0.0 0.0 -1.2749219999999994 2.2082296796873284 0.0 0.0 0.0 6.826089944223788" Properties=species:S:1:pos:R:3 pbc="T T T"
C        0.00000000       0.00000000       0.00000000
C        0.00000000       1.47215312       0.00000000
C        0.00000000       1.47215312       3.41304497
C        1.27492200       0.73607656       3.41304497
