4
Lattice="2.4314760000000004 0.0 0.0 -1.2157379999999998 2.1057199846921724 0.0 0.0 0.0 6.723415425607681" Properties=species:S:1:pos:R:3 pbc="T T T"
C        0.00000000       0.00000000       0.00000000
C        0.00000000       1.40381332       0.00000000
C        0.00000000       1.40381332       3.36170771
C        1.21573800       0.70190666       3.36170771
