4
Lattice="2.2341960000000003 0.0 0.0 -1.1170979999999997 1.934870493033578 0.0 0.0 0.0 6.569366571220328" Properties=species:S:1:pos:R:3 pbc="T T T"
C        0.00000000       0.00000000       0.00000000
C        0.00000000       1.28991366       0.00000000
C        0.00000000       1.28991366       3.28468329
C        1.11709800       0.64495683       3.28468329
