4
Lattice="2.036916 0.0 0.0 -1.0184579999999996 1.764021001374984 0.0 0.0 0.0 6.361561830451221" Properties=species:S:1:pos:R:3 pbc="T T T"
C        0.00000000       0.00000000       0.00000000
C        0.00000000       1.17601400       0.00000000
C        0.00000000       1.17601400       3.18078092
C        1.01845800       0.58800700       3.18078092
