4
Lattice="2.7668520000000005 0.0 0.0 -1.3834259999999996 2.396164120511782 0.0 0.0 0.0 6.919981763807693" Properties=species:S:1:pos:R:3 pbc="T T T"
C        0.00000000       0.00000000       0.00000000
C        0.00000000       1.59744275       0.00000000
C        0.00000000       1.59744275       3.45999088
C        1.38342600       0.79872137       3.45999088
