4
Lattice="2.4117480000000002 0.0 0.0 -1.2058739999999997 2.0886350355263126 0.0 0.0 0.0 6.710596227654876" Properties=species:S:1:pos:R:3 pbc="T T T"
C        0.00000000       0.00000000       0.00000000
C        0.00000000       1.39242336       0.00000000
C        0.00000000       1.39242336       3.35529811
C        1.20587400       0.69621168       3.35529811
