72
Lattice="7.395 0 0 3.6975 6.40425786098592 0 0 0 13.6 " PBC="1 1 1" Properties=species:S:1:pos:R:3:force:R:3 Energy="-570.708895"
C     3.707223056925000e+00   6.385339618238982e+00   1.331460508800000e+01 -8.18368500e-01  -9.38289020e-01   7.99996950e-01
C     1.184129329650000e+00   7.001789207705292e-01   1.329155893600000e+01  1.90383257e+00  -1.23344261e+00   1.13337623e+00
C     1.216181293275000e+00   7.917578228485926e-01   3.387636784000000e+00  2.78942766e+00  -2.21050976e+00   1.16851782e+00
C     2.504488831650000e+00   1.472473499514217e+00   3.385939504000000e+00  7.98668500e-02  -6.90144460e-01   6.56876900e-01
C     6.040014556725000e+00   6.348557147475543e+00   1.341503959200000e+01  5.25033222e+00   2.11024780e-01  -5.30995010e-01
C     3.731005192050000e+00   7.369387204611433e-01   1.320445284000000e+01 -1.43258627e+00  -3.75711670e+00   3.01103358e+00
C     3.745529526674999e+00   7.548999099275635e-01   3.533037376000000e+00 -1.90965370e+00   9.72899500e-02  -1.32730550e-01
C     4.893203502975000e+00   1.493263065421928e+00   3.558555328000000e+00  4.44125365e+00   3.09147260e-01   9.00637410e-01
C     8.687310045149999e+00   6.380469372264188e+00   1.332005732800000e+01 -2.69055541e+00  -1.15256756e+00   7.48756910e-01
C     6.200231188050000e+00   6.672611634552864e-01   1.341717778400000e+01 -2.42619087e+00   2.15781770e+00   9.28397430e-01
C     6.216620134949999e+00   7.767399022094713e-01   3.579372168000000e+00 -8.14447390e-01   7.81611000e-02   4.04818770e-01
C     7.484594011575000e+00   1.532119234880434e+00   3.454021648000000e+00 -4.53951048e+00  -3.22853259e+00   9.05143300e-02
C     1.295809322175000e+00   2.087034217167300e+00   1.333282963200000e+01 -4.20271848e+00   1.80252217e+00  -2.19008620e-01
C     2.450648609775000e+00   2.782991066901045e+00   1.300113420000000e+01  9.58108980e-01   1.54542153e+00   3.36575925e+00
C     2.565972562500000e+00   2.871161879116331e+00   3.463193624000000e+00 -3.41618062e+00   1.82881458e+00  -4.46680930e-01
C     3.786060227550000e+00   3.643535358316854e+00   3.549587896000000e+00 -2.65044621e+00  -3.24929958e+00   1.06003401e+00
C     3.691379232450000e+00   2.114862959059250e+00   1.335943055200000e+01 -1.69779610e-01  -2.01122000e-03  -3.02216746e+00
C     4.922072806500000e+00   2.800817895037563e+00   1.346435645600000e+01 -1.66787149e+00   1.70895930e+00   1.86020826e+00
C     4.959454309650000e+00   2.934070391734482e+00   3.733128736000000e+00  1.00615883e+00  -1.49718928e+00  -2.91052473e+00
C     6.214043753925000e+00   3.589729025267385e+00   3.531563816000000e+00 -2.37122023e+00   2.51251089e+00   5.98629050e-01
C     6.068644595025000e+00   2.144702509834084e+00   1.524882320000000e-01  5.39054359e+00  -3.26756346e+00  -2.63615687e+00
C     7.401377004300000e+00   2.838621332589042e+00   4.760965600000000e-02  1.83369340e-01  -2.97578697e+00  -9.78794760e-01
C     7.380066537000000e+00   2.883757517305065e+00   3.382842512000000e+00  1.92290357e+00   2.13427719e+00   6.98252420e-01
C     8.558741388600000e+00   3.612954898950197e+00   3.454899256000000e+00  5.28002999e+00   5.29429200e-01  -8.52274110e-01
C     9.794856052275000e+00   4.230609897830917e+00   1.312378240000000e+01  3.85131420e+00  -1.26460477e+00   1.14449094e+00
C     3.716501452500000e+00   4.967207207305544e+00   1.330525019200000e+01 -1.21666403e+00  -1.26089356e+00   6.50696400e-02
C     3.707608077600000e+00   4.990266250071103e+00   3.662025760000000e+00 -5.23484580e-01   2.71870162e+00  -1.27295040e-01
C     4.861003935150000e+00   5.719163015852287e+00   3.594800688000000e+00  4.94805073e+00   2.44987172e+00  -1.01149393e+00
C     4.933238553974999e+00   4.230669585514172e+00   3.364640000000000e-04 -1.92940812e+00   1.15507280e-01  -1.48982266e+00
C     6.131170577175000e+00   4.924726420026013e+00   1.004478320000000e-01  1.29182158e+00   1.74954487e+00  -1.75207059e+00
C     6.209060633175000e+00   5.063943202067950e+00   3.524054304000000e+00 -1.60391275e+00  -1.64154190e+00   8.30921470e-01
C     7.464072923549999e+00   5.741800914620971e+00   3.628445864000000e+00 -2.47028122e+00   1.13162033e+00  -2.14190248e+00
C     7.425563054325000e+00   4.197174036054800e+00   1.355881892800000e+01 -2.74620061e+00   1.61441557e+00   1.18660553e+00
C     8.618463334650000e+00   4.854898427003025e+00   1.340318324800000e+01  5.57365860e-01   4.88733963e+00  -1.38373941e+00
C     8.644986722324999e+00   5.064220890688760e+00   3.463369744000000e+00  1.22666886e+00  -2.25774923e+00   2.23071435e+00
C     9.905300857949999e+00   5.739440689429247e+00   3.715556040000000e+00 -1.34350598e+00   9.40501850e-01  -2.23225804e+00
C     7.384077880800000e+00   1.033634410088280e-02   7.318667415999999e+00  1.04314586e+00   2.00539766e+00  -3.08978431e+00
C     1.302999147900000e+00   7.410640872042409e-01   6.926811160000000e+00 -3.00130002e+00   3.71380990e-01   1.62586920e-01
C     1.300184906700000e+00   6.528052164433800e-01   1.020971162400000e+01 -6.95653296e+00  -1.06785044e+00  -8.85507170e-01
C     2.437819209150000e+00   1.338253063284337e+00   1.025403715200000e+01  1.45405643e+00   2.53611451e+00  -1.29441743e+00
C     2.472662082749999e+00   3.017929665430680e-02   6.660768640000000e+00  8.04773950e-01  -8.51696110e-01  -1.16629200e-02
C     3.711724948050000e+00   7.360823431001040e-01   6.454178248000000e+00 -8.11514900e-02   7.05136650e-01   2.04991498e+00
C     3.634622607450000e+00   6.263547348854797e-01   1.038268907200000e+01  2.22093197e+00   2.69140288e+00   1.55060078e+00
C     4.888581073350000e+00   1.370601225905512e+00   1.048605424000000e+01 -1.29367970e-01   1.04087140e+00  -4.28098547e+00
C     4.923463658099999e+00   3.332481194482440e-02   6.906889472000000e+00 -1.15162630e+00   1.13449859e+00  -1.83230419e+00
C     6.119400510300000e+00   7.069888243233816e-01   7.057602087999999e+00  2.75396753e+00   2.38794645e+00   9.79625420e-01
C     6.113067469275000e+00   6.792966212090058e-01   1.029456882400000e+01 -4.27746640e-01  -1.24517359e+00   1.13042600e+00
C     7.261461940425000e+00   1.441330938435188e+00   1.009861540000000e+01  4.58008346e+00  -6.35465505e+00   9.35626890e-01
C     8.628504857250000e+00   2.200773388462849e+00   6.756155368000000e+00  2.03967815e+00  -2.94155066e+00   1.39688553e+00
C     2.480505737400000e+00   2.893918384740583e+00   6.700044352000000e+00  4.55177740e-01   1.32380850e-01  -1.57262448e+00
C     2.416755143250000e+00   2.795778768783000e+00   1.002621063200000e+01  9.71708630e-01  -5.02748890e-01   7.84866680e-01
C     3.651975899325000e+00   3.544750129124405e+00   9.977622183999999e+00  2.21716260e-01  -3.46738088e+00   4.16980690e-01
C     3.688517515350000e+00   2.184664630582434e+00   6.389860584000000e+00  1.35316973e+00   3.41456600e-02   2.82492640e+00
C     4.972481008875000e+00   2.943537229745713e+00   6.631316208000000e+00 -9.25082030e-01  -5.10048233e+00   7.61348520e-01
C     4.938515589000000e+00   2.781672750420564e+00   9.991504519999999e+00 -2.04412815e+00  -3.59433000e-02   2.58063712e+00
C     6.156756611624999e+00   3.487719060114689e+00   1.011341220000000e+01 -1.36316117e+00   1.84132426e+00   1.08705155e+00
C     6.199630233374999e+00   2.177909867689757e+00   6.976031191999999e+00 -2.57404338e+00  -1.68322665e+00  -1.88490347e+00
C     7.414816936125000e+00   2.813033056266833e+00   6.922029671999999e+00 -2.92836890e-01   4.36515332e+00  -4.06538110e-01
C     7.336442322749999e+00   2.742675303033666e+00   1.017819933600000e+01  1.15825301e+00   5.14845773e+00  -5.95876240e-01
C     8.592398806724999e+00   3.481671519417491e+00   1.011686755200000e+01 -1.04260860e-01   1.43004739e+00   1.65489995e+00
C     2.527754536950000e+00   4.316867502053106e+00   6.872837519999999e+00 -3.19424302e+00   2.23135650e-01   1.04462884e+00
C     3.674624159100000e+00   5.033150953893863e+00   7.128524319999999e+00  3.38229563e+00  -1.69939825e+00  -1.80705282e+00
C     3.587735164575000e+00   4.900061829814952e+00   1.012554258400000e+01  4.92363051e+00   1.32713613e+00  -5.75481470e-01
C     4.898125873800000e+00   5.621604778423234e+00   1.015530632000000e+01 -9.00135300e-02   7.77858500e-01   1.21485093e+00
C     4.965043413675000e+00   4.265853041175125e+00   6.827217680000000e+00 -1.29897842e+00   4.17211576e+00   5.27857100e-01
C     6.204719879099999e+00   4.959530039153289e+00   6.697220312000000e+00 -2.14062365e+00   2.80880613e+00   1.46395049e+00
C     6.113697745125000e+00   4.946849032207282e+00   1.037242379200000e+01  1.42723935e+00  -1.23880595e+00  -1.08174854e+00
C     7.378090556025000e+00   5.699364060550360e+00   1.063588584800000e+01 -8.54705090e-01  -4.44384561e+00  -2.60226647e+00
C     7.391874318375001e+00   4.328451459627695e+00   6.810213464000000e+00  2.88630393e+00  -2.83509559e+00   7.20675500e-02
C     8.645213453024999e+00   5.059978710282296e+00   6.914886951999999e+00 -2.10597710e-01  -3.16554464e+00  -3.86301260e-01
C     8.647727309324999e+00   4.932077483368036e+00   1.045671618400000e+01 -2.63674603e+00  -1.36318031e+00  -9.81494650e-01
C     9.858900412799999e+00   5.602156584324300e+00   1.035878775200000e+01 -2.38573890e+00   2.94093590e+00  -3.52360600e-01
