72
Lattice="7.395 0 0 3.6975 6.40425786098592 0 0 0 13.6 " PBC="1 1 1" Properties=species:S:1:pos:R:3:force:R:3 Energy="-570.01708084"
C     1.107790896247500e+01   6.389220214246670e+00   1.328716232800000e+01 -1.81051731e+00   4.95406100e-02   8.54422490e-01
C     1.217581499550000e+00   6.113291931795048e-01   1.324385584800000e+01  4.44589100e-02   2.39713489e+00   1.03114022e+00
C     1.213858671675000e+00   8.185221130416331e-01   3.386540080000000e+00  1.43562914e+00  -3.00544236e+00   1.41391507e+00
C     2.546526337725000e+00   1.369961120332405e+00   3.377035856000000e+00 -3.57961425e+00   5.20696596e+00   6.66475500e-01
C     6.107708756475000e+00   6.333068577926291e+00   1.336366926400000e+01  3.18968147e+00   3.70972140e-01  -1.82780710e-01
C     3.722772486450000e+00   6.863562267758196e-01   1.321118824000000e+01 -1.47530930e+00  -2.49572725e+00   2.15605026e+00
C     3.738333230325000e+00   7.463522750469787e-01   3.572585360000000e+00  2.50682087e+00   4.87466485e+00  -3.58380750e-01
C     4.953066619575000e+00   1.524157589594039e+00   3.605510416000000e+00  1.41880920e+00  -7.90856520e-01   7.00375110e-01
C     8.653354830374999e+00   6.351275242596484e+00   1.326522362400000e+01 -3.35722543e+00  -2.81140650e-01   9.51362770e-01
C     6.086261814449999e+00   6.609356779669644e-01   1.338504343200000e+01  4.10665574e+00   2.30519491e+00   7.34742740e-01
C     6.267652364400000e+00   7.466346387760260e-01   3.626041792000000e+00 -3.96134643e+00   3.25855905e+00   6.64903800e-02
C     7.421204774100000e+00   1.537559075549297e+00   3.477191696000000e+00  1.10739044e+00  -1.39949752e+00  -3.28915230e-01
C     1.292576856750000e+00   2.040413205266436e+00   1.326155026400000e+01 -3.64504412e+00   2.42341603e+00   3.20691060e-01
C     2.467373844300000e+00   2.742147720271159e+00   1.293577328000000e+01  5.59820730e-01   1.61466653e+00   3.57706030e+00
C     2.525360960325000e+00   2.855324725811758e+00   3.485437920000000e+00 -5.77456000e-02   1.78043900e-01  -5.20838530e-01
C     3.772350821924999e+00   3.625169419753682e+00   3.582180024000000e+00 -5.23661280e+00   2.51910950e-01   8.53738030e-01
C     3.717465723525000e+00   2.065864558555598e+00   1.331823955200000e+01 -2.10807285e+00   8.12417260e-01  -3.04424409e+00
C     4.886110403849999e+00   2.798229294010551e+00   1.343595802400000e+01  1.12373753e+00   2.74005570e-01   2.12029534e+00
C     4.938438902850000e+00   3.000399930816288e+00   3.735599040000000e+00  3.14836532e+00  -5.37718219e+00  -2.26206364e+00
C     6.187850368125000e+00   3.583904480828872e+00   3.545437992000000e+00  2.53845864e+00   4.65596627e+00   2.90720880e-01
C     6.050437735275000e+00   2.072706867653222e+00   1.186665280000000e-01  3.95976390e+00   1.03206207e+00  -2.34449438e+00
C     7.409633078100000e+00   2.906629427655954e+00   5.677496800000000e-02  2.69040020e-01  -5.32461632e+00  -1.80374795e+00
C     7.486892451524999e+00   2.926138782417451e+00   3.406418112000000e+00 -6.25487826e+00  -1.07549643e+00   9.29024750e-01
C     8.618244072900000e+00   3.602556561633230e+00   3.482371800000000e+00  5.50048814e+00   2.03745072e+00  -7.19301760e-01
C     9.818204507625000e+00   4.197429181687943e+00   1.305168716800000e+01  1.34730439e+00   9.60610450e-01   2.02091337e+00
C     3.681176757675000e+00   5.015067571187473e+00   1.328116173600000e+01  3.88420780e-01  -4.97583709e+00  -1.16555600e-01
C     3.673768150875000e+00   5.019176927285922e+00   3.720726080000000e+00  1.03895045e+00   6.76152150e-01  -6.25265250e-01
C     4.817596690199999e+00   5.789411576488940e+00   3.635933888000000e+00  5.87613009e+00  -7.56751800e-02  -1.07955790e+00
C     4.944034921200000e+00   4.202321074054304e+00   1.355739895200000e+01 -1.67208309e+00   2.96437541e+00  -1.27066272e+00
C     6.173454521625000e+00   4.956055665221662e+00   6.625906399999999e-02 -8.74089610e-01  -3.52093120e-01  -1.48218757e+00
C     6.242566934475000e+00   5.082348526816962e+00   3.564270456000000e+00 -3.37959029e+00  -8.13606190e-01   6.67445470e-01
C     7.469539862174999e+00   5.848078356998679e+00   3.645589888000000e+00 -1.02128138e+00  -8.07321989e+00  -1.85028417e+00
C     7.452082855424999e+00   4.298343378320792e+00   1.355674003200000e+01 -3.68044857e+00  -2.30166699e+00   1.34382879e+00
C     8.611361324550000e+00   4.934540368813256e+00   1.336085746400000e+01  3.74227545e+00   5.50091050e-01  -2.13014313e+00
C     8.644538363475000e+00   5.049377357991166e+00   3.476852376000000e+00  1.04039822e+00   7.62032240e-01   2.46985465e+00
C     9.899918481149999e+00   5.759014022726765e+00   3.720115168000000e+00 -2.03353284e+00  -1.28176066e+00  -1.71820626e+00
C     7.364914366874999e+00   6.696528975956820e-02   7.356504791999999e+00  3.42842334e+00  -1.25824071e+00  -3.30503324e+00
C     1.282675913100000e+00   7.745072498343181e-01   6.935435600000000e+00 -1.49954412e+00  -2.44632747e+00   1.51450690e-01
C     1.219311522825000e+00   6.279620114806038e-01   1.019297668800000e+01 -1.04061104e+00   1.51548988e+00  -4.56393750e-01
C     2.455534597200000e+00   1.340724210222197e+00   1.026597727200000e+01 -1.92509839e+00   9.91462480e-01  -1.49672406e+00
C     2.487324334125000e+00   5.400921993847380e-02   6.656107648000000e+00 -1.47933422e+00  -2.19782215e+00   5.53902340e-01
C     3.667966514550000e+00   7.751978850019404e-01   6.472984464000000e+00  9.02290780e-01   3.29923200e-02   1.45955347e+00
C     3.638050855500000e+00   6.317763234194412e-01   1.043261208800000e+01  4.67005780e-01   3.37794656e+00   5.24669680e-01
C     4.846924224900000e+00   1.383147038968094e+00   1.046962992800000e+01  3.16316506e+00   4.67256180e-01  -3.74047544e+00
C     4.848081431475000e+00   7.436745907931340e-02   6.875515767999999e+00  2.68531069e+00  -6.13748570e-01  -5.12301700e-01
C     6.149084299125000e+00   7.407813392197218e-01   7.085559472000000e+00 -2.00786072e+00  -6.54186680e-01   1.20957120e-01
C     6.111190803150000e+00   6.226836861949705e-01   1.032087353600000e+01 -2.83178380e-01   6.74348640e-01   6.43686870e-01
C     7.318864001025000e+00   1.390051533409539e+00   1.008474476000000e+01  4.26213930e-01  -2.75777491e+00   1.64428176e+00
C     1.275390802800000e+00   2.140760625078676e+00   6.733584944000000e+00  8.56255200e-02   1.77218217e+00   1.66114847e+00
C     2.492980288950000e+00   2.929654399769698e+00   6.670265248000000e+00 -9.80258530e-01  -1.19280430e-01  -9.92955610e-01
C     2.419767385575000e+00   2.780150522369821e+00   1.002037800000000e+01  4.15676770e-01  -1.14895499e+00   6.59404690e-01
C     3.596978322975000e+00   3.553380635101698e+00   9.952119871999999e+00  3.65745559e+00  -3.32781748e+00   5.78311660e-01
C     3.642118660125000e+00   2.188545418717859e+00   6.393323552000000e+00  3.95397913e+00   1.87826063e+00   2.53551956e+00
C     5.011083648375000e+00   2.934211093279667e+00   6.627693032000000e+00 -2.98665059e+00  -3.52090136e+00   8.08353380e-01
C     4.951493222400000e+00   2.812611207801595e+00   9.984579671999999e+00 -4.69481685e+00  -1.72499264e+00   2.34087197e+00
C     6.140755199699999e+00   3.506109975283516e+00   1.013262872800000e+01 -9.46602760e-01   1.03795017e+00   8.73948560e-01
C     6.153855885900000e+00   2.134654805634952e+00   6.991111824000000e+00  1.30444869e+00   2.01233682e+00  -1.74299630e+00
C     7.455944450474999e+00   2.807301501652448e+00   6.954368976000000e+00 -1.92357203e+00   1.44870048e+00  -6.68175660e-01
C     7.291979663399999e+00   2.785257597800278e+00   1.019734310400000e+01  3.87298928e+00  -1.10500613e+00  -1.15691652e+00
C     8.591378333700000e+00   3.433825629158325e+00   1.010723181600000e+01 -1.90037583e+00   3.14330648e+00   1.98371867e+00
C     9.893512525424999e+00   4.366459321090066e+00   6.895139752000000e+00  8.75000190e-01  -9.26342050e-01   9.53887100e-01
C     3.790771988775000e+00   5.006077786344235e+00   7.163688887999999e+00 -3.02910002e+00   1.57797476e+00  -1.69441694e+00
C     3.653667616500000e+00   4.904127188661901e+00   1.013832549600000e+01  1.48907225e+00   9.28212880e-01  -5.70771930e-01
C     4.926678301575000e+00   5.624444362315779e+00   1.015461856800000e+01 -8.72740210e-01  -6.46197760e-01   1.18736254e+00
C     4.987575534974999e+00   4.319339097289016e+00   6.815338895999999e+00 -7.27738870e-01   3.27020000e-04   2.95844100e-01
C     6.205395190499999e+00   4.964148918007079e+00   6.692349744000000e+00  1.02954012e+00   2.60916565e+00   1.49714600e+00
C     6.134492411175000e+00   4.899583047497339e+00   1.038579272800000e+01 -3.39746900e-02   2.35794543e+00  -1.03942425e+00
C     7.310515563675000e+00   5.713858689279742e+00   1.064430805600000e+01  2.09279066e+00  -6.86099132e+00  -2.23076625e+00
C     7.418147348324999e+00   4.235817712237512e+00   6.832514336000000e+00  8.49967550e-01   1.06376568e+00  -3.31329700e-01
C     8.631277427624999e+00   5.046736498220016e+00   6.920314032000000e+00 -6.57393210e-01  -6.59351610e-01  -4.08847890e-01
C     8.619063475874999e+00   4.889162423363018e+00   1.045668463200000e+01 -1.72917827e+00  -6.05320900e-01  -9.49549540e-01
C     9.860544691049999e+00   5.544612278089685e+00   1.038432610400000e+01 -2.10333037e+00   3.67726240e+00  -5.19234540e-01
