64
Lattice="9.86 0 0 4.93 8.53901048131456 0 0 0 30 " PBC="1 1 1" Properties=species:S:1:pos:R:3:force:R:3 Energy="-510.50972229"
C     4.949004903500000e+00   7.823887223513161e+00   1.311534000000000e-01  2.95063183e+00   1.62948651e+00   5.20909970e-01
C     1.297540356100000e+00   2.129057100009840e-02   2.281866000000000e-01 -5.80208590e-01  -1.06205342e+00  -1.62338636e+00
C     9.759961869700000e+00   6.387710111590807e-01   3.155170200000000e+00 -1.07842932e+00   2.23488699e+00   1.31222300e-01
C     1.096026261000000e+00   1.381325497252501e+00   3.208040700000000e+00  1.89975594e+00  -2.36907558e+00   7.20999020e-01
C     7.435971553800000e+00   7.902227094310349e+00   1.072719000000000e-01  2.17702850e+00  -3.18619821e+00   7.05592430e-01
C     3.782168263700000e+00   3.710823401325040e-02   1.441698000000000e-01 -3.25454360e-01   1.97241102e+00   1.61899940e-01
C     2.322326786000000e+00   6.068218764976369e-01   3.413278200000000e+00  1.68567979e+00   3.02636166e+00  -1.05891297e+00
C     3.622235612700000e+00   1.371989882484822e+00   3.353785500000000e+00 -2.92362823e+00  -1.19965120e-01   6.90882490e-01
C     9.985572424400001e+00   7.898615775998147e+00   2.699346000000000e-01 -1.95539511e+00  -4.17889310e-01  -2.08815100e+00
C     6.250588845599999e+00   4.838152103905120e-02   6.625470000000000e-02  2.17768126e+00   1.05567723e+00   1.44576394e+00
C     4.842855939600000e+00   6.700206300820032e-01   3.365327100000000e+00  3.25673970e-01   2.14531657e+00   8.94996900e-02
C     6.077964747700000e+00   1.458796438343244e+00   3.343800000000000e+00  9.04075900e-02  -2.72611253e+00   4.37094300e-02
C     1.244402439840000e+01   7.898603821383475e+00   9.373440000000000e-02 -1.73463716e+00  -2.74372234e+00   6.70932800e-02
C     1.365183781780000e+01   8.532833872159397e+00   3.040065000000000e-01 -9.50763160e-01   3.64441667e+00  -1.96771290e+00
C     7.278567549100000e+00   6.071179239909784e-01   3.232798200000000e+00  1.05453621e+00   3.05575766e+00   6.72323700e-01
C     8.550952235099999e+00   1.390803713495196e+00   3.192374700000000e+00 -8.53408330e-01  -9.98916420e-01  -9.45544230e-01
C     1.384017929800000e+00   1.395767867237744e+00   8.865540000000000e-02 -4.01558184e+00   3.05195047e+00   1.47036930e-01
C     2.500086957900000e+00   2.188348146228244e+00   6.793530000000000e-02  4.90372093e+00   7.62785050e-01  -8.78563000e-01
C     1.097237069000000e+01   2.766852529221580e+00   3.166089600000000e+00  6.54867370e-01   2.19868668e+00   5.51160700e-02
C     2.318179423500000e+00   3.499596887734948e+00   3.332467800000000e+00  1.31027568e+00   4.61991860e-01  -3.39504730e-01
C     3.806069840400000e+00   1.509944854948130e+00   7.744799999999999e-02 -3.58952000e-01  -1.74139686e+00   7.29703900e-01
C     5.104791523099999e+00   2.176729627008737e+00   1.478538000000000e-01 -3.29876153e+00   1.87573210e-01  -4.79921910e-01
C     3.539802118000000e+00   2.814357606224965e+00   3.363787800000000e+00  2.75908730e+00  -1.06460041e+00  -9.04269660e-01
C     4.841850515400000e+00   3.547959196000419e+00   3.225846900000000e+00 -1.75600339e+00  -1.18836351e+00   2.65192033e+00
C     6.308658625400001e+00   1.481635131943366e+00   1.574736000000000e-01 -6.00597850e-01  -9.73831820e-01  -4.04630440e-01
C     7.515147797499999e+00   2.220006186022425e+00   1.522194000000000e-01  1.16328990e+00  -7.08583661e+00   3.05755330e-01
C     6.087277468400000e+00   2.912014170359694e+00   3.424904700000000e+00  7.98511870e-01  -3.83038487e+00  -2.17386646e+00
C     7.364232658799999e+00   3.517465364895081e+00   3.245343000000000e+00 -3.16132580e-01   7.97309370e-01   1.07346768e+00
C     8.746313739500000e+00   1.480174875761182e+00   2.112411000000000e-01  5.82868170e-01  -1.07968330e+00  -5.66480550e-01
C     9.979445864099999e+00   2.179460231780031e+00   1.843800000000000e-02 -7.79102830e-01  -1.15521205e+00   1.99009480e+00
C     8.636053845799999e+00   2.847675117315829e+00   3.063808800000000e+00 -4.37626707e+00  -2.29516409e+00   1.13088192e+00
C     9.801112974100000e+00   3.546756305594101e+00   2.996128500000000e+00  7.10609320e-01   1.82009788e+00   1.57698818e+00
C     2.555492910800000e+00   3.655658831921096e+00  -5.932980000000043e-02 -5.41809390e-01  -1.57407643e+00   1.03739108e+00
C     3.803364059200000e+00   4.367745701671352e+00  -4.250850000000028e-02  2.36470060e-01  -3.28566519e+00   1.18414358e+00
C     1.228816027920000e+01   4.944842599567271e+00   3.335552100000000e+00 -5.13748368e+00  -1.93743245e+00   1.19550250e-01
C     3.588342799400000e+00   5.599965901185657e+00   3.418480500000000e+00  3.06716453e+00   2.41907561e+00  -8.26130340e-01
C     5.047238505899999e+00   3.579416654438425e+00   1.131399000000000e-01  7.76786430e-01   2.12635411e+00  -9.92095310e-01
C     6.329904509700000e+00   4.278513810666295e+00   7.385939999999999e-02 -2.69404088e+00   3.21442690e-01   6.55065500e-01
C     4.817374692300000e+00   4.915942233207605e+00   3.389619000000000e+00  1.56979879e+00   1.02583077e+00  -3.94858550e-01
C     6.096622332699999e+00   5.608191615371145e+00   3.423569100000000e+00 -2.36125258e+00   1.30431785e+00   2.27537570e-01
C     7.551511871899999e+00   3.506505288773687e+00   1.092249000000000e-01 -1.43437951e+00   8.55383530e+00  -1.92167690e-01
C     8.727739619399999e+00   4.318675765607403e+00   1.358052000000000e-01 -5.79556230e-01  -4.58400830e-01  -1.30117200e-01
C     7.314184284800000e+00   4.914430059841702e+00   3.431841300000000e+00  9.57193700e-01   7.60025350e-01  -1.92042463e+00
C     8.499025629699998e+00   5.684669554933169e+00   3.238714200000000e+00  1.94678215e+00  -5.14283860e-01   1.20297801e+00
C     9.909616900400000e+00   3.605193109204087e+00   1.779309000000000e-01  3.11558583e+00  -4.28684300e-01  -1.69734098e+00
C     1.116347918200000e+01   4.320469128588413e+00   7.075919999999999e-02  2.59584250e-01  -1.41071750e-01  -5.04133080e-01
C     9.779438229100000e+00   5.035247067491441e+00   3.188887800000000e+00  7.01882100e-02  -3.26381811e+00  -6.50906640e-01
C     1.103136834510000e+01   5.669879647221389e+00   3.302046900000000e+00 -1.19791932e+00   9.34940960e-01  -2.79826450e-01
C     3.786053251600000e+00   5.765190118226739e+00   8.929740000000000e-02 -1.58970990e-01  -2.71774840e+00  -1.76689881e+00
C     4.923866340499999e+00   6.461735903513290e+00  -4.927830000000100e-02  5.61124846e+00  -7.20081550e-01   2.11996273e+00
C     1.345754341190000e+01   7.021923169735874e+00   3.267535500000000e+00 -4.73689270e-01   6.59571060e-01   2.98389620e-01
C     4.799774592299999e+00   7.809237867913882e+00   3.176594700000000e+00  1.26672543e+00  -4.08199482e+00   1.51670283e+00
C     6.229860118300000e+00   5.732686118664304e+00   1.312941000000000e-01 -9.41945680e-01  -1.55321829e+00  -1.76151146e+00
C     7.443075042900000e+00   6.384990009802404e+00   9.973230000000000e-02  5.11373880e-01   4.04652776e+00   1.93272330e-01
C     6.057463885000000e+00   7.048233824997165e+00   3.379043400000000e+00 -3.93123650e-01  -1.23409730e-01  -5.30464370e-01
C     7.302193144399999e+00   7.743596871942131e+00   3.411766800000000e+00 -1.80189743e+00   9.99737690e-01   1.05728480e-01
C     8.683743461299999e+00   5.741993640087505e+00   1.051512000000000e-01  1.89213940e+00   1.16072890e-01   5.20069410e-01
C     9.959616418100000e+00   6.500224980911262e+00   1.655592000000000e-01 -1.69925600e-02  -2.65428514e+00  -3.50526290e-01
C     8.526526550100000e+00   7.084532219256491e+00   3.364834200000000e+00 -2.24834400e-02  -3.47715890e-01   3.70684700e-02
C     9.743307047900000e+00   7.803844799674924e+00   3.371103000000000e+00 -1.38451250e-01   2.60332150e-01  -2.71297370e-01
C     1.120675240490000e+01   5.715099514240116e+00   4.075950000000000e-02 -1.09498802e+00   2.15892780e+00   4.92904800e-01
C     1.247353271620000e+01   6.410623692312839e+00   3.884100000000000e-03 -4.46982183e+00   3.29634620e+00   7.79164970e-01
C     1.094351934400000e+01   7.120586227035882e+00   3.316220400000000e+00  1.47297560e+00  -3.66814327e+00   3.68073710e-01
C     1.219729653380000e+01   7.678813619573096e+00   3.269983200000000e+00  1.29115619e+00   4.46127957e+00  -1.13358790e-01
