26
Lattice="8.88768389401873 1.33226762955019e-15 0 4.44384194700937 7.69696003302603 0 0 0 30 " PBC="1 1 1" Properties=species:S:1:pos:R:3:force:R:3 Energy="-208.82658901"
C     5.261379997336441e-02   9.040610645477069e-02   3.473920800000000e+00  6.21429180e-01  -5.22685590e-01   2.21662200e-02
C     6.881486518626495e+00   7.158259418700337e+00   3.585577500000000e+00  4.30679400e-01   9.93247270e-01   9.20168600e-02
C     8.248977113470866e+00   7.544895577954506e+00   3.615282600000000e+00  5.41568050e-01  -3.12109520e-01   4.56832900e-02
C     9.285940076159694e+00   6.551039930426413e+00   3.667500900000000e+00  8.24142100e-02   1.77838508e+00  -1.32199129e+00
C     1.065205974579112e+01   6.979378219123122e+00   3.473891700000000e+00 -5.32240060e-01   4.10580020e-01   7.14089740e-01
C     1.166279746413091e+01   6.004826085532667e+00   3.425055600000000e+00  1.87184409e+00   5.19470350e-01   2.25451810e-01
C     4.187215231684569e+00   6.391034832596370e+00   3.396301800000000e+00 -7.21762070e-01   1.41610970e-01   5.47631390e-01
C     5.240905659779484e+00   5.389695045983105e+00   3.472660800000000e+00 -2.00045433e+00   1.59617883e+00  -8.20723440e-01
C     6.563216335716790e+00   5.791538243107746e+00   3.541152600000000e+00  9.40156140e-01  -6.88320400e-02   3.77674700e-01
C     7.589341923303463e+00   4.801983810783617e+00   3.590865000000000e+00 -1.26797431e+00   7.64822280e-01  -4.79412020e-01
C     8.923633863698335e+00   5.200061116274380e+00   3.611409900000000e+00  1.01522988e+00  -1.85900520e-01   5.11813400e-01
C     9.936698244368609e+00   4.230650628953565e+00   3.608901300000000e+00  1.88252279e+00  -2.63244970e-01  -3.49884100e-02
C     1.134710235432161e+01   4.651244775255289e+00   3.536463300000000e+00 -1.32189639e+00  -1.51677471e+00  -3.83647950e-01
C     3.500649870529994e+00   3.682208360191932e+00   3.464167500000000e+00  2.58375630e-01  -1.46042875e+00  -1.00689200e-02
C     4.892018650164155e+00   4.053270490521401e+00   3.375949800000000e+00 -1.02449298e+00  -2.03950554e+00   1.40320867e+00
C     5.886221810228414e+00   3.011889655409670e+00   3.512187600000000e+00 -1.03765383e+00   1.25010251e+00  -1.59456708e+00
C     7.232511190696095e+00   3.453249507145932e+00   3.494062800000000e+00  1.78855100e-01  -1.50836674e+00   8.33821590e-01
C     8.244232375682893e+00   2.457395190006848e+00   3.544326300000000e+00  1.03064480e-01  -1.17689000e-02  -8.34137400e-02
C     9.598142767301363e+00   2.850712002688657e+00   3.626441400000000e+00  7.98293030e-01   2.70392980e-01  -6.58079820e-01
C     1.748432947368598e+00   1.888663811575737e+00   3.559426800000000e+00  1.80477931e+00  -1.09562422e+00   4.83775030e-01
C     3.172759836300581e+00   2.267997403031843e+00   3.528009900000000e+00 -1.45571258e+00  -1.87297310e-01  -1.20933920e-01
C     4.165885186925652e+00   1.205299375299426e+00   3.522654900000000e+00 -5.22819900e-01   2.23777734e+00  -2.18350840e-01
C     5.522389626866353e+00   1.637498151268783e+00   3.421074900000000e+00  2.53505490e-01   4.70823200e-02   1.15770320e+00
C     6.556101297057681e+00   6.792624953675225e-01   3.463379700000000e+00 -3.08998290e-01  -9.16285460e-01  -4.24255370e-01
C     7.912843838033340e+00   1.086130729817349e+00   3.472056000000000e+00  1.77337790e-01  -6.24545050e-01   1.09900980e-01
C     1.437076760356314e+00   4.740255191947821e-01   3.564588600000000e+00 -7.66049840e-01   7.03719360e-01  -3.74504110e-01
