26
Lattice="8.88768389401873 1.33226762955019e-15 0 4.44384194700937 7.69696003302603 0 0 0 30 " PBC="1 1 1" Properties=species:S:1:pos:R:3:force:R:3 Energy="-209.29862714"
C     8.213857476208305e-01   9.377318010469434e-01   3.276750900000000e+00  9.32816020e-01   5.25451700e-02   5.95371880e-01
C     3.245457134244240e+00   3.326587640165850e-01   3.285601500000000e+00 -1.29391853e+00   8.76071340e-01   3.62021720e-01
C     4.592652169668455e+00   7.249800518881132e-01   3.401296200000000e+00  2.57475690e-01   1.31250944e+00  -5.78333790e-01
C     1.004671981854431e+01   7.455040727777084e+00   3.446599800000000e+00  7.82129240e-01   5.34307400e-02   3.86202500e-02
C     6.973547854555704e+00   1.586492783207582e-01   3.445307400000000e+00  2.81557640e-01  -6.03756200e-02  -5.45041400e-02
C     1.245332606201755e+01   6.886365922002193e+00   3.405738600000000e+00 -3.35274600e-02  -8.46184600e-01   2.31888750e-01
C     4.936129604990754e+00   7.269870034280955e+00   3.334444800000000e+00 -5.60437230e-01  -5.19797460e-01  -1.42473690e-01
C     5.955848461209756e+00   6.284711412799560e+00   3.312415200000000e+00  1.40616320e-01  -5.85216100e-01   2.53254770e-01
C     7.321718742402404e+00   6.668673648139307e+00   3.290733000000000e+00  6.96134290e-01  -6.88731400e-01   8.77812100e-02
C     8.361264777095725e+00   5.670389092840351e+00   3.331191000000000e+00 -8.95791240e-01   8.78244110e-01   2.44350240e-01
C     9.710464740704065e+00   6.083951758276270e+00   3.432066000000000e+00 -2.00149270e-01  -2.45269490e-01  -3.15045570e-01
C     1.071993436430675e+01   5.109901312540569e+00   3.423451200000000e+00  1.60549958e+00  -6.57921580e-01  -6.34434700e-02
C     3.226795801049929e+00   5.496185258903766e+00   3.434829900000000e+00 -4.25991570e-01  -1.78501130e-01  -3.51979410e-01
C     4.253049015768905e+00   4.493765819707093e+00   3.377452800000000e+00  3.15415360e-01   4.24647650e-01   2.62216920e-01
C     5.639766337179596e+00   4.891305800418162e+00   3.389730300000000e+00 -5.25500520e-01   3.27240200e-02  -4.92403220e-01
C     6.682539934286229e+00   3.906349455046354e+00   3.364157100000000e+00 -2.13071038e+00  -6.22063200e-02  -9.94506400e-02
C     8.010621694437500e+00   4.300883541956907e+00   3.336568800000000e+00  1.01038876e+00   1.82304100e-01   9.53741800e-02
C     9.028387304376222e+00   3.328386419724861e+00   3.334904100000000e+00  3.97768500e-01  -1.27584458e+00   2.69622490e-01
C     1.039205739498782e+01   3.719021072745015e+00   3.346162500000000e+00 -2.14273650e-01   1.90232750e-01  -2.91209210e-01
C     2.505934556382313e+00   2.723519122436104e+00   3.252839700000000e+00  1.71379811e+00  -4.33225620e-01   9.24896000e-01
C     3.913706534295267e+00   3.117009270657789e+00   3.338064000000000e+00 -6.74976150e-01  -5.99396090e-01  -3.47065110e-01
C     4.954683263905704e+00   2.123225050918772e+00   3.352319400000000e+00 -7.83066290e-01   8.28079200e-02   2.07369870e-01
C     6.318678865947722e+00   2.526102719471445e+00   3.360993900000000e+00  2.55548310e-01  -2.80699970e-01   4.55630310e-01
C     7.346076103339759e+00   1.527903061641620e+00   3.423298800000000e+00 -7.24787550e-01   3.70005980e-01  -2.97001110e-01
C     8.708550978220174e+00   1.915993407554258e+00   3.379990500000000e+00 -5.31583580e-01   1.25586100e+00  -5.28365850e-01
C     2.189591001123522e+00   1.319326913299065e+00   3.273252900000000e+00  6.05565610e-01   7.21985720e-01  -4.67123370e-01
