26
Lattice="8.88768389401873 1.33226762955019e-15 0 4.44384194700937 7.69696003302603 0 0 0 30 " PBC="1 1 1" Properties=species:S:1:pos:R:3:force:R:3 Energy="-208.54162744"
C     1.304378187449041e+01   7.272454904367830e+00   5.876700000000000e-03 -2.14690312e+00  -4.58887500e-01  -2.29721250e-01
C     9.216992757773268e+00   7.090958200802821e+00  -3.211980000000025e-02  3.92180800e-01   1.57011422e+00  -5.09178390e-01
C     1.063002526641157e+01   6.726599814781082e+00  -8.899380000000079e-02 -1.42728174e+00  -1.07353355e+00   7.85025600e-01
C     1.099586064303967e+01   5.320956959587189e+00  -5.077559999999792e-02 -2.30406465e+00   1.06671685e+00   1.86530650e-01
C     6.838223628257453e+00   6.498240862799820e+00  -3.196110000000019e-02 -7.37757450e-01   1.49048680e-01  -2.59761350e-01
C     8.151201391249257e+00   6.082616797528666e+00  -8.298330000000220e-02  3.46213616e+00   2.10357271e+00   4.67373240e-01
C     8.572120810704405e+00   4.757063043565332e+00  -7.032600000000144e-02 -1.74590936e+00  -1.76777885e+00  -2.48860500e-02
C     9.902713963180069e+00   4.362804815702254e+00  -5.039790000000011e-02  2.39176843e+00   7.72611000e-03   5.13515000e-03
C     1.028865265865390e+01   2.994756376322090e+00  -1.509420000000006e-02 -1.16487868e+00  -1.50408332e+00  -4.51940510e-01
C     4.484675790312610e+00   5.877209487630462e+00  -1.691579999999959e-02 -8.25096940e-01   1.54134780e+00   6.37738140e-01
C     5.834298229464354e+00   5.505209867569341e+00  -1.708260000000195e-02 -1.19862550e-01  -9.23741300e-02  -1.58560470e-01
C     6.178373178639128e+00   4.144631635776692e+00  -2.759879999999981e-02  8.14459100e-02  -8.83551400e-01   3.80832300e-01
C     7.541873825034095e+00   3.729757793199663e+00  -4.179690000000136e-02 -2.02738760e-01   2.06625824e+00  -1.65393740e-01
C     7.857128192851443e+00   2.392717711844359e+00  -5.068320000000170e-02  2.00181289e+00  -2.99440298e+00   2.26779680e-01
C     9.250152614147286e+00   1.945182204228025e+00  -5.707350000000133e-02 -1.12489460e-01   1.80506198e+00   5.03167860e-01
C     3.437895046355306e+00   4.932372853688627e+00   4.809240000000000e-02  1.22629663e+00  -1.16447061e+00  -1.38599990e+00
C     3.811271445020571e+00   3.542402086690218e+00  -7.228290000000115e-02 -1.14823936e+00   7.36067770e-01   1.45547555e+00
C     5.148495431809958e+00   3.138769269389001e+00   2.496510000000000e-02  1.15583429e+00   2.17480423e+00  -9.88036210e-01
C     5.503953282148919e+00   1.812166188864776e+00  -2.411670000000044e-02 -1.59893450e-01  -2.51255618e+00   5.16613450e-01
C     6.871902392051090e+00   1.345847096960831e+00  -1.154160000000104e-02 -9.40653570e-01   2.89169027e+00  -2.27409140e-01
C     7.200701856748069e+00   9.969102630856000e-03  -1.267470000000159e-02  1.22977837e+00  -1.64904695e+00  -2.07366410e-01
C     2.772217253494157e+00   2.601720194802976e+00  -2.522610000000114e-02 -1.29280568e+00  -1.44513426e+00  -1.20029070e-01
C     3.055755076963230e+00   1.177182226370636e+00  -5.030399999998991e-03  1.31263626e+00   1.71699768e+00  -2.19820250e-01
C     4.439979091514591e+00   8.677566592350053e-01   5.029500000000000e-03  4.62802020e-01  -3.85360114e+00  -3.54917930e-01
C     6.841496428367226e-01   5.565553264508538e-01  -9.612600000000526e-03  1.67910831e+00   1.19948585e+00  -3.47106970e-01
C     2.074077017408285e+00   1.743643155532098e-01  -4.259129999999800e-02 -1.06722530e+00   3.70528480e-01   4.85456020e-01
