26
Lattice="8.88768389401873 1.33226762955019e-15 0 4.44384194700937 7.69696003302603 0 0 0 30 " PBC="1 1 1" Properties=species:S:1:pos:R:3:force:R:3 Energy="-209.1326089"
C     8.583639340936466e-01   9.427243572008026e-01   3.275036400000000e+00 -1.00190837e+00   6.02925080e-01   3.25599020e-01
C     3.205422428867585e+00   3.651534050232375e-01   3.246455100000000e+00  1.66264449e+00  -2.13278390e-01   1.54088870e-01
C     4.596713085765320e+00   7.438607718113035e-01   3.343456800000000e+00 -5.77724850e-01   3.06160100e-02   3.54413800e-02
C     1.007536971194602e+01   7.452109109640858e+00   3.474774600000000e+00 -8.79012520e-01   6.07102900e-02  -7.57843020e-01
C     6.995059604635633e+00   1.472129811689836e-01   3.472761900000000e+00 -2.34042080e-01   3.94075420e-01   1.41959300e-01
C     1.245449790312502e+01   6.865697429172835e+00   3.448386000000000e+00  5.02601850e-01   2.32151840e-01  -6.98568600e-02
C     4.930615597010203e+00   7.241614955828427e+00   3.333224400000000e+00  1.05355999e+00   1.05473335e+00   1.95355620e-01
C     5.976080473681914e+00   6.266428207883497e+00   3.344706300000000e+00 -1.93307450e-01   5.57496370e-01  -7.29460420e-01
C     7.339767406461949e+00   6.668561734340471e+00   3.270241500000000e+00 -8.38351460e-01   7.35057840e-01   4.98174460e-01
C     8.351385361015007e+00   5.695246502226835e+00   3.350279700000000e+00  2.47883580e-01  -8.20943040e-01   6.45405000e-02
C     9.716876449164817e+00   6.064319353236550e+00   3.417335400000000e+00  6.84197790e-01   8.85328280e-01   3.13433910e-01
C     1.076804597462800e+01   5.104270832339424e+00   3.448161600000000e+00 -9.94071110e-01  -4.90957850e-01  -4.26712390e-01
C     3.235220925433343e+00   5.498446240912578e+00   3.462043800000000e+00  2.55444450e-01  -2.42321110e-01  -3.69089700e-01
C     4.273630803079060e+00   4.534759443978872e+00   3.370345800000000e+00 -6.42533380e-01  -8.29064190e-01   2.78058360e-01
C     5.628658243230971e+00   4.903025037820639e+00   3.332570400000000e+00 -5.40800000e-03  -4.07031670e-01   9.82311570e-01
C     6.612774548674919e+00   3.890193689882585e+00   3.454190400000000e+00  1.64308736e+00   2.31187230e-01  -1.48660658e+00
C     8.004691831752101e+00   4.310135133973766e+00   3.395227500000000e+00 -4.20415990e-01  -6.88917470e-01   1.03063090e-01
C     9.040044523873327e+00   3.315644333303997e+00   3.342757500000000e+00  2.11921190e-01   7.69052800e-01   2.36761600e-01
C     1.042142368015970e+01   3.731829353022138e+00   3.316413300000000e+00  1.69924220e-01  -5.41656210e-01   1.82106490e-01
C     2.593758071449978e+00   2.760291887766631e+00   3.248041500000000e+00 -1.84137294e+00  -1.80164770e-01   5.53697160e-01
C     3.937143889990622e+00   3.142243138359341e+00   3.365689200000000e+00 -1.88299460e-01   4.91356820e-01  -7.72262650e-01
C     4.917065875219345e+00   2.136437498567070e+00   3.336833100000000e+00  1.01469479e+00  -8.34082560e-01   1.08840950e-01
C     6.289223303981535e+00   2.498471094781348e+00   3.348426600000000e+00  1.61416910e-01   8.80863180e-01   1.23605690e+00
C     7.323189517432883e+00   1.530096233432568e+00   3.451884600000000e+00  4.62415430e-01   1.36733390e-01  -6.23563190e-01
C     8.698215801710834e+00   1.942787064205890e+00   3.382890900000000e+00  2.99309920e-01  -9.62419650e-01  -3.67874750e-01
C     2.223434590402173e+00   1.381275280343718e+00   3.207873900000000e+00 -5.52654340e-01  -8.51450950e-01   1.93780400e-01
