26
Lattice="8.88768389401873 1.33226762955019e-15 0 4.44384194700937 7.69696003302603 0 0 0 30 " PBC="1 1 1" Properties=species:S:1:pos:R:3:force:R:3 Energy="-208.90756226"
C     1.244185837223532e+01   6.677308482748963e+00   1.621440000000000e-02 -7.36629560e-01  -8.96244670e-01   8.47470000e-03
C     8.660664718090590e+00   6.488424929673561e+00   2.642400000000000e-02  4.01694130e-01   1.62747689e+00  -3.45231060e-01
C     1.004304289396299e+01   6.101624517292352e+00  -1.216829999999902e-02 -1.00833220e-01   3.44125520e-01   1.04009880e-01
C     1.039215098294143e+01   4.707705440707354e+00  -4.408380000000278e-02 -1.34525910e-01   2.03206620e-01  -2.35078400e-01
C     6.298036066889687e+00   5.874889931755821e+00   2.624100000000000e-02 -9.82588940e-01   9.31241700e-01  -2.95907310e-01
C     7.636461268610183e+00   5.494280338265941e+00   2.931540000000000e-02  1.59063669e+00   1.06258738e+00   3.39876610e-01
C     8.016960834871323e+00   4.145835671234186e+00   6.018420000000000e-02 -1.57248045e+00  -1.22274837e+00  -7.68523560e-01
C     9.343547508311691e+00   3.729220083571967e+00  -3.803010000000029e-02  1.51098383e+00  -2.64920710e-01   3.02826180e-01
C     9.694098557206535e+00   2.332904096664027e+00  -6.807719999999762e-02 -4.25499000e-01   4.10678000e-01   4.46176030e-01
C     3.901508367302718e+00   5.261071993587379e+00  -6.190739999999906e-02  2.74814100e-02   1.75517404e+00   4.81690700e-02
C     5.286817656905908e+00   4.908577470847081e+00  -6.547020000000003e-02 -1.27218650e+00  -5.98885550e-01  -4.55194240e-01
C     5.615913125894650e+00   3.541615226466350e+00  -2.215652999999982e-01 -2.31056560e-01  -5.04594850e-01   1.33051252e+00
C     6.969801164487690e+00   3.164549544283083e+00  -3.776789999999863e-02  3.08702930e-01  -8.66054130e-01  -4.11648610e-01
C     7.293424486481068e+00   1.760191927474999e+00  -2.933549999999840e-02  8.50262170e-01   8.28400530e-01  -1.49137460e-01
C     8.656239003677364e+00   1.341678500378183e+00   1.397340000000000e-02  4.94204180e-01   6.18789330e-01  -3.64843800e-02
C     2.872951463644866e+00   4.301400854640524e+00  -1.357185000000030e-01 -1.84140480e-01  -5.34855360e-01  -2.72166500e-02
C     3.216458356476338e+00   2.898530829297437e+00  -2.250386999999989e-01 -8.86816020e-01   1.49605650e+00   7.92768210e-01
C     4.569748698338582e+00   2.538102280158216e+00  -2.149637999999996e-01  9.41909440e-01   9.10028800e-01  -4.45264110e-01
C     4.894048639738338e+00   1.182746897563525e+00  -1.533122999999996e-01  1.51835556e+00  -4.86326480e-01   3.13706910e-01
C     6.303050717022534e+00   7.795194021774881e-01  -9.885749999999760e-02 -1.91877279e+00   1.92142630e-01   3.14452270e-01
C     1.108144419627937e+01   7.116992937195495e+00  -2.188290000000137e-02 -4.22469060e-01  -1.84415872e+00  -9.75465800e-02
C     2.175440120122491e+00   1.953229914726592e+00  -9.187200000000217e-02 -7.25147660e-01  -1.15503178e+00  -5.37122220e-01
C     2.477612617095539e+00   5.395755247462726e-01  -5.369069999999709e-02  1.17959904e+00   2.05961068e+00   1.18494680e-01
C     3.864099791485605e+00   2.500940125619771e-01  -3.926100000000332e-02  1.83791360e-01  -4.00437552e+00  -1.73728880e-01
C     4.545698895688690e+00   7.658013566187400e+00   6.532560000000000e-02  1.48175376e+00   8.32384000e-03  -6.65874930e-01
C     5.934960982668589e+00   7.254151225538090e+00   2.025000000000000e-04 -8.96228340e-01  -6.96463300e-02   5.24491320e-01
