26
Lattice="8.88768389401873 1.33226762955019e-15 0 4.44384194700937 7.69696003302603 0 0 0 30 " PBC="1 1 1" Properties=species:S:1:pos:R:3:force:R:3 Energy="-208.79149763"
C     7.582532404390110e-01   8.328833497006817e-01   3.490230900000000e+00 -4.36641340e-01   1.65550799e+00  -1.95620600e-02
C     3.146352570869833e+00   2.620110618372254e-01   3.556389600000000e+00  6.28147190e-01   1.84393370e+00  -2.80039260e-01
C     4.531275202274775e+00   6.628753595852513e-01   3.463361100000000e+00 -3.59947170e-01   1.16178671e+00   1.26249200e-01
C     1.001725679090982e+01   7.406113154075983e+00   3.356529600000000e+00 -6.72100840e-01  -4.77941330e-01   1.38398400e-02
C     6.928523914462819e+00   1.152210286218904e-01   3.297323700000000e+00 -1.37304600e-01  -1.47732790e+00   3.21609530e-01
C     1.236057503719908e+01   6.774913709858993e+00   3.334401900000000e+00  3.97574040e-01   1.12876604e+00  -1.86653480e-01
C     4.837582477112640e+00   7.141823792069877e+00   3.390295500000000e+00  1.18688148e+00   1.03377251e+00   6.16475320e-01
C     5.892856423869275e+00   6.175947748794838e+00   3.437710800000000e+00 -1.11676480e-01   1.21158101e+00   2.02389900e-02
C     7.264510943089943e+00   6.617098782005487e+00   3.437574300000000e+00 -6.16369940e-01  -1.45671855e+00   6.19747170e-01
C     8.303244910118224e+00   5.637270767162467e+00   3.428023800000000e+00 -1.45637580e-01  -4.53790440e-01  -1.06897843e+00
C     9.671350132737317e+00   6.016684330033286e+00   3.349551900000000e+00 -2.07989840e-01   2.58347120e-01  -1.83973210e-01
C     1.068363866302176e+01   5.015485628697371e+00   3.263880000000000e+00 -8.18286270e-01  -1.70419800e-02   1.41486212e+00
C     1.201211601399375e+01   5.426605125080568e+00   3.350466600000000e+00  1.65892120e+00  -1.40612243e+00   1.60416950e-01
C     4.177038521280927e+00   4.419605917696444e+00   3.498507000000000e+00 -3.33310920e-01   1.98176068e+00  -1.12060887e+00
C     5.544108462057689e+00   4.823026837688035e+00   3.475748700000000e+00 -1.83673710e-01  -4.61872940e-01  -3.70125440e-01
C     6.555825869792321e+00   3.847934531442674e+00   3.373744800000000e+00  1.73014345e+00  -1.57073730e-01  -1.16006900e-02
C     7.960492313208883e+00   4.254436390595073e+00   3.302865000000000e+00 -1.00194740e+00  -1.43135390e-01   1.37721831e+00
C     8.977283033090282e+00   3.264346634700857e+00   3.436974600000000e+00  2.87269770e-01  -3.93199110e-01  -5.29342380e-01
C     1.035607893959540e+01   3.649429855299374e+00   3.466555800000000e+00  2.75120090e-01  -9.35063900e-01  -1.11259800e+00
C     2.524350903863678e+00   2.629952105405814e+00   3.464409600000000e+00 -2.41640601e+00   1.56095361e+00   8.05980350e-01
C     3.864654695863939e+00   3.074358106043549e+00   3.417721800000000e+00 -2.25257050e-01  -1.83777033e+00   8.46037270e-01
C     4.877733563439671e+00   2.075266755394248e+00   3.452055300000000e+00 -9.33453800e-02  -9.60624760e-01  -3.46425930e-01
C     6.232989994783708e+00   2.469240426645017e+00   3.376902900000000e+00  4.29977300e-01  -6.22587440e-01   9.71344400e-02
C     7.271011613928068e+00   1.458413674977175e+00   3.349553700000000e+00 -2.26394300e-02   1.95611083e+00  -1.03902930e-01
C     8.630647940348512e+00   1.878552315184326e+00   3.411381900000000e+00  3.99427790e-01  -1.18351440e+00   2.56837820e-01
C     2.117766294705475e+00   1.286233140923677e+00   3.625999800000000e+00  7.89071620e-01  -1.80873558e+00  -1.34283663e+00
