26
Lattice="8.88768389401873 1.33226762955019e-15 0 4.44384194700937 7.69696003302603 0 0 0 30 " PBC="1 1 1" Properties=species:S:1:pos:R:3:force:R:3 Energy="-209.15647646"
C     6.021343625976851e-02   6.602575465094479e-02   3.449212800000000e+00 -6.04817180e-01  -3.46702900e-02  -4.00987250e-01
C     6.897010280577707e+00   7.170426773115762e+00   3.630186900000000e+00  8.82442400e-02  -2.50886360e-01  -3.32127670e-01
C     8.270315953688534e+00   7.576286628832057e+00   3.653204700000000e+00 -1.21342830e-01   1.75542870e-01  -3.49347680e-01
C     9.296781539619165e+00   6.581724323403609e+00   3.666940800000000e+00 -8.28092370e-01   1.20761540e-01  -7.52046700e-01
C     1.063485474511919e+01   6.970793722632063e+00   3.452469600000000e+00  9.00010980e-01   3.34686100e-02   2.27489200e-01
C     1.167932477889630e+01   5.998114413356106e+00   3.370769400000000e+00 -9.78137690e-01  -7.15506100e-01   4.46113990e-01
C     4.145676019156879e+00   6.389454261854209e+00   3.324816300000000e+00  4.90476950e-01   2.21844870e-01   5.87876770e-01
C     5.169526493000745e+00   5.427264292737537e+00   3.388989000000000e+00  7.56016190e-01  -1.91208553e+00   1.40634560e-01
C     6.562525762666208e+00   5.772558463308970e+00   3.555807000000000e+00 -1.52220181e+00   1.52034997e+00  -3.06144610e-01
C     7.564998246064031e+00   4.808472271119307e+00   3.581102700000000e+00  9.93364040e-01  -6.75494190e-01   2.73788600e-01
C     8.932226520924834e+00   5.205028965186544e+00   3.659478600000000e+00  3.43894190e-01   1.28827110e-01   1.51534860e-01
C     9.975438902994556e+00   4.234604480351375e+00   3.652943100000000e+00 -7.14429260e-01  -6.31069750e-01  -5.37492870e-01
C     1.132298073583111e+01   4.606845938896639e+00   3.501827100000000e+00  1.48425029e+00   2.85672800e-01  -2.39685070e-01
C     3.476486479899642e+00   3.598443729638248e+00   3.439254900000000e+00 -1.11007127e+00   6.71179600e-01  -1.94230700e-02
C     4.839399206534178e+00   3.997743851168977e+00   3.368490900000000e+00 -3.99932130e-01   1.75831437e+00   2.54997260e-01
C     5.870483899570138e+00   3.055549352696640e+00   3.411404100000000e+00  4.61532650e-01  -1.41344441e+00  -2.14245300e-02
C     7.240046391271090e+00   3.423933248814068e+00   3.509329200000000e+00 -5.06710600e-01   4.23631190e-01  -9.96841700e-02
C     8.251422067557886e+00   2.445353296039913e+00   3.544258800000000e+00  6.37442360e-01  -6.27432400e-01  -1.68741740e-01
C     9.624653484070786e+00   2.852708286242037e+00   3.616315200000000e+00  1.20578450e-01  -1.11648512e+00   1.26018560e-01
C     1.765061359501485e+00   1.825380791661882e+00   3.609909600000000e+00 -1.50967587e+00   7.61695580e-01  -5.00512360e-01
C     3.096307223995674e+00   2.221821107693465e+00   3.501348000000000e+00  1.96568935e+00   4.30037250e-01   2.66823320e-01
C     4.163793870509236e+00   1.268907129956947e+00   3.499172700000000e+00 -2.49323010e-01  -7.71612710e-01   2.36798590e-01
C     5.537603608599786e+00   1.656142112701450e+00   3.412766700000000e+00 -5.46330240e-01   2.11398390e-01   1.51520110e-01
C     6.544398083770349e+00   6.518340704222163e-01   3.393253200000000e+00  2.72266690e-01   4.01352740e-01   2.48521570e-01
C     7.921804134271743e+00   1.041522074328281e+00   3.432177300000000e+00 -2.25182500e-01   7.87020660e-01   1.81174380e-01
C     1.410605371570933e+00   4.455939494487660e-01   3.547324800000000e+00  8.02480390e-01   2.17589310e-01   4.34325930e-01
