52
Lattice="8.88768389401873 1.33226762955019e-15 0 4.44384194700937 7.69696003302603 0 0 0 30 " PBC="1 1 1" Properties=species:S:1:pos:R:3:force:R:3 Energy="-417.19669346"
C     1.231396646739372e+01   6.557068266491509e+00  -1.340421000000021e-01  2.03177741e+00   2.71840174e+00  -6.41439460e-01
C     8.675417206815425e+00   6.472263622698570e+00  -2.414631000000007e-01 -3.97780171e+00  -8.69224810e-01  -6.20049100e-02
C     9.951936401758530e+00   6.029305266303277e+00  -3.174627000000001e-01  3.04354022e+00   2.12752310e+00   9.74521110e-01
C     1.035251791197547e+01   4.702789315366592e+00  -2.178375000000017e-01 -9.64772300e-01  -2.11888678e+00   2.19370680e-01
C     6.192893922108311e+00   5.824543423473188e+00  -2.960996999999992e-01  1.60528414e+00  -2.19612290e-01   8.17128910e-01
C     7.625691662090803e+00   5.487980761329388e+00  -2.284635000000002e-01 -1.46559895e+00  -1.54473610e-01  -5.90465920e-01
C     7.992403764319537e+00   4.118216746528137e+00  -2.224569000000010e-01 -2.83773933e+00  -1.01560205e+00   2.39630160e-01
C     9.306282871791455e+00   3.730931425665037e+00  -2.038007999999998e-01  1.30742802e+00  -2.79237783e+00  -2.02459780e-01
C     9.586966282227770e+00   2.250624594548130e+00  -1.980830999999981e-01  1.72548849e+00   3.46457390e+00   2.04521690e-01
C     3.821596846175344e+00   5.205418123485660e+00  -3.207929999999948e-02  3.21529640e-01   1.83602500e-01  -9.78842410e-01
C     5.185420648761907e+00   4.798789110553565e+00  -1.581587999999989e-01  1.05182992e+00   1.93764773e+00   8.06412380e-01
C     5.592013299531063e+00   3.459398069726697e+00   7.181700000000000e-03 -1.56410835e+00  -7.93388840e-01  -1.08117336e+00
C     6.937702049781180e+00   3.069057979366891e+00  -1.427030999999985e-01  1.04366916e+00   5.35498780e-01   1.20158000e-01
C     7.281151305982715e+00   1.666328269605152e+00  -1.810529999999986e-01 -1.74968600e+00   2.07704712e+00   4.71596730e-01
C     8.603774383497070e+00   1.280486282686878e+00  -2.255763000000002e-01 -9.49406300e-02  -1.10204759e+00  -1.25280410e-01
C     2.794813568733304e+00   4.274569944702346e+00  -4.688040000000271e-02  9.64642100e-02  -2.54232099e+00   3.94582740e-01
C     3.124315249253064e+00   2.813433624053759e+00   6.237000000000000e-02 -3.56204740e-01   3.42235697e+00  -1.14822721e+00
C     4.510723900931673e+00   2.486563589736536e+00   2.125410000000000e-02  2.70757400e-02  -1.57424227e+00   5.78601280e-01
C     4.801843807532120e+00   1.069436716238682e+00  -3.745619999999761e-02  4.26672049e+00   3.14001365e+00  -1.65860880e-01
C     6.273129573704098e+00   7.031360793229731e-01  -1.216488000000027e-01 -3.46306064e+00   1.98253880e-01  -2.31326430e-01
C     1.098549182774606e+01   7.039929972770331e+00  -2.181744000000023e-01  2.77430280e-01  -2.07453961e+00   2.60528860e-01
C     2.054756082525908e+00   1.907863955340172e+00  -1.066661999999994e-01  1.58958213e+00  -3.05060171e+00   3.93390210e-01
C     2.437982123503636e+00   4.511272170447327e-01  -1.432272000000019e-01  7.47064580e-01   3.67554377e+00  -1.40052600e-01
C     3.832162254859300e+00   1.347232010979029e-01  -1.210829999999987e-01 -1.35817768e+00  -1.77731401e+00  -2.69248670e-01
C     4.443962066983060e+00   7.597340354510917e+00  -2.324310000000018e-01  2.25488900e+00  -1.38349533e+00   1.97107910e-01
C     5.893130298529080e+00   7.223865842968848e+00  -2.816552999999971e-01 -3.56763057e+00  -1.97731816e+00   3.49201540e-01
C     9.904255402720051e-01   1.065048063568777e+00   3.580289100000000e+00 -5.85240760e-01   2.06903362e+00  -3.04230000e-02
C     3.319459678829849e+00   5.307087037613128e-01   3.692406000000000e+00  1.15061542e+00  -2.14341671e+00  -2.17147580e-01
C     4.699179415603320e+00   8.640753571918569e-01   3.714290400000000e+00 -4.56300580e-01   1.28473478e+00  -3.53723300e-01
C     1.018243755126181e+01   7.604011617647320e+00   3.634229700000000e+00 -2.06013290e-01  -2.26791424e+00  -3.57065740e-01
C     7.111306288335928e+00   2.533455163570503e-01   3.538011600000000e+00  3.08824130e-01   1.80108213e+00   3.83556200e-02
C     1.260453160597464e+01   7.000879907875728e+00   3.496361100000000e+00 -1.20738288e+00  -8.62363360e-01   3.72244100e-01
C     5.067837081417313e+00   7.411894648632916e+00   3.529030500000000e+00  9.80231060e-01  -1.75873309e+00   3.11606150e-01
C     6.095581471723740e+00   6.385442375377772e+00   3.554364000000000e+00  2.92925620e-01   7.57354270e-01  -3.16743700e-01
C     7.464044779142673e+00   6.789349050516857e+00   3.550605000000000e+00 -1.51627290e+00   1.98436385e+00   5.48246410e-01
C     8.451991320861906e+00   5.816621635240712e+00   3.484194900000000e+00  1.33820110e+00  -1.75706739e+00  -5.80374970e-01
C     9.840728590596109e+00   6.163996909865057e+00   3.544209900000000e+00 -1.92139130e-01   2.20070073e+00  -1.95790060e-01
C     1.088310708573507e+01   5.209298776793585e+00   3.475408200000000e+00 -6.71481460e-01  -1.53150480e-01   1.20728020e+00
C     3.344955736457312e+00   5.596292613780348e+00   3.556442100000000e+00  1.57216442e+00   1.35556798e+00  -2.87179020e-01
C     4.397548802255271e+00   4.645662401054332e+00   3.634310700000000e+00  2.16960870e-01  -1.00170200e-01  -9.18350120e-01
C     5.785864751339357e+00   5.000253344798001e+00   3.548825700000000e+00 -2.03064861e+00   9.43947820e-01  -1.46107840e-01
C     6.733643672324637e+00   3.991173033360966e+00   3.401855100000000e+00  1.61374005e+00  -4.14475160e-01   5.78510060e-01
C     8.112830903568195e+00   4.402059234885654e+00   3.310601100000000e+00  3.38843800e-01   4.72045790e-01   1.59232029e+00
C     9.167628781540175e+00   3.440668902946498e+00   3.484690800000000e+00  2.02665790e-01   1.11965740e-01  -3.09168640e-01
C     1.055295402501791e+01   3.830110296253201e+00   3.611051100000000e+00 -1.00497238e+00   1.07417726e+00  -1.61363897e+00
C     2.709469405537339e+00   2.906724859006175e+00   3.575149200000000e+00 -1.09784049e+00  -1.07773348e+00   1.09057556e+00
C     4.066072943113895e+00   3.278088248351216e+00   3.579137700000000e+00 -1.26975808e+00   3.83789520e-01   6.40251910e-01
C     4.999434618801994e+00   2.271812555209913e+00   3.659928000000000e+00  2.75876150e+00  -1.93040927e+00  -1.50219580e-01
C     6.386195578693885e+00   2.597461851666378e+00   3.568146300000000e+00  5.62829730e-01   1.76083392e+00  -7.68595000e-01
C     7.452467545468530e+00   1.672764005764636e+00   3.504651600000000e+00  5.39904600e-02  -1.56746552e+00   2.22452680e-01
C     8.844838589225571e+00   2.060150772560931e+00   3.489552300000000e+00 -9.05193070e-01  -3.00396500e-01   2.48416970e-01
C     2.339248043987707e+00   1.543527505654519e+00   3.699954600000000e+00 -2.32682550e-01  -1.84577206e+00  -1.00017036e+00
