64
Lattice="9.86 0 0 4.93 8.53901048131456 0 0 0 30 " PBC="1 1 1" Properties=species:S:1:pos:R:3:force:R:3 Energy="-513.43031711"
C     4.942100832900000e+00   8.280633087561235e+00   4.065840000000000e-02  2.04211304e+00  -1.41759341e+00  -1.33420900e-01
C     1.258616182000000e+00   4.204728306498720e-01   9.731070000000000e-02  6.20867150e-01   9.87195360e-01  -1.52593966e+00
C     1.233835832800000e+00   9.892563187226719e-01   3.314181300000000e+00 -2.52215991e+00  -5.35655580e-01   1.39399206e+00
C     2.404426371800000e+00   1.721637342340115e+00   3.363812700000000e+00  1.01626516e+00   2.51062549e+00  -2.30074650e-01
C     7.447369516600000e+00   8.279636841208532e+00   5.064300000000000e-02 -1.11453220e-01  -2.02841756e+00  -2.77015710e-01
C     3.762774038100000e+00   4.280664872796312e-01  -3.953399999999974e-02 -2.54994410e-01  -3.99179940e-01   1.33900229e+00
C     3.647910116000000e+00   1.072151324660416e+00   3.383865900000000e+00 -1.43274100e-02  -1.94121216e+00   5.26549150e-01
C     4.896459878900000e+00   1.713620663131177e+00   3.397846200000000e+00  7.04553420e-01   8.10067600e-01  -7.50997760e-01
C     9.917400828100000e+00   8.227757143746141e+00   1.105671000000000e-01 -7.72150700e-02   1.03355884e+00  -1.18067235e+00
C     6.214325343200000e+00   3.835142854903360e-01   5.879220000000000e-02  5.97956880e-01   2.12769818e+00   3.20019140e-01
C     6.120394644800000e+00   9.614978742344976e-01   3.308472900000000e+00  2.04311660e-01   5.47422230e-01   1.47160721e+00
C     7.337531482999999e+00   1.699042608269406e+00   3.423575100000000e+00 -4.46469370e-01   1.18661988e+00  -2.22226510e-01
C     1.237756863930000e+01   8.258342683824033e+00   6.749670000000001e-02 -3.19454720e-01  -1.62807373e+00  -6.77124990e-01
C     8.659480269099999e+00   4.503838742899496e-01  -3.568920000000020e-02 -4.70423140e-01  -2.85386839e+00   1.07875161e+00
C     8.585884637500000e+00   9.711518233128712e-01   3.434315400000000e+00 -3.72797840e-01   1.82645856e+00   5.64572120e-01
C     9.832555478800000e+00   1.663300359762641e+00   3.456439500000000e+00 -6.99557850e-01   2.19897334e+00  -1.10020673e+00
C     1.278786981200000e+00   1.854726188901186e+00  -6.989310000000160e-02  2.33291860e-01  -6.63027800e-01   1.15171432e+00
C     2.533322552900000e+00   2.539527589953754e+00  -6.950999999979501e-04 -1.46445390e-01   1.77398750e+00  -1.20240776e+00
C     2.378573106700000e+00   3.199063169067366e+00   3.357777300000000e+00  1.67740137e+00  -2.79584976e+00  -3.71269040e-01
C     3.654628325600000e+00   3.873213862348230e+00   3.309525600000000e+00 -3.40231630e-01  -1.82776751e+00   1.53862810e-01
C     3.787655353700000e+00   1.865049084060562e+00  -2.765310000000198e-02 -2.91266343e+00  -2.63081499e+00   3.36822060e-01
C     4.948096452400000e+00   2.529761609057883e+00   4.218900000000000e-02  4.24365555e+00   1.77410078e+00  -2.12399800e-02
C     4.915632796799999e+00   3.151221228100545e+00   3.350383200000000e+00 -3.03718833e+00  -7.97781030e-01   7.88979600e-02
C     6.060916906299999e+00   3.893136313089223e+00   3.362551800000000e+00  2.09331129e+00   3.24931250e-01   4.22450940e-01
C     6.256682670700000e+00   1.832122147309053e+00   7.367130000000000e-02 -2.18994168e+00  -2.09964210e-01  -3.56749310e-01
C     7.470958876399999e+00   2.570604379304561e+00   6.538980000000000e-02 -2.12002533e+00  -1.90877683e+00  -8.96190200e-02
C     7.254423564300000e+00   3.166435268462866e+00   3.474586500000000e+00  3.52042666e+00  -1.08880994e+00  -1.21024202e+00
C     8.574210989099999e+00   3.874475501146651e+00   3.369032700000000e+00 -2.60274382e+00  -1.20953553e+00   1.09390425e+00
C     8.657032819900000e+00   1.796533600990929e+00   2.013420000000000e-02  1.42541369e+00   4.26867555e+00  -2.90867130e-01
C     9.900679747100000e+00   2.544683444481578e+00  -4.102169999999816e-02 -1.79988320e-01  -9.18467210e-01   4.81527690e-01
C     9.755961026800000e+00   3.148467909561374e+00   3.393150600000000e+00  2.03595821e+00  -2.17781648e+00   1.44476800e-02
C     1.101544572690000e+01   3.850156057739191e+00   3.338802000000000e+00 -8.20179060e-01   3.99430890e-01   4.15704300e-01
C     2.541554913400000e+00   3.980553835147489e+00  -8.689140000000251e-02 -7.71954620e-01   5.82663270e-01   4.41985630e-01
C     3.841298437200000e+00   4.761700122934955e+00  -2.091030000000060e-02 -4.96679205e+00  -3.57945736e+00   3.42593170e-01
C     3.664911664700000e+00   5.247704308662016e+00   3.259723500000000e+00  7.63898320e-01   2.52009105e+00   1.10187558e+00
C     4.897883021999999e+00   6.047604056655762e+00   3.401374800000000e+00 -1.27495025e+00  -3.76335389e+00  -7.74099140e-01
C     4.958501217400000e+00   3.964283092238269e+00   3.757320000000000e-02  1.85903774e+00   2.14951730e-01  -9.77375440e-01
C     6.186525467599999e+00   4.678975726426601e+00  -8.877660000000276e-02 -3.10516030e-01  -1.55797960e-01   1.68692541e+00
C     6.127057687699999e+00   5.330179195284143e+00   3.372098100000000e+00 -2.60450043e+00  -1.35486012e+00  -5.88962000e-03
C     7.311994329499999e+00   5.980035122897836e+00   3.393045900000000e+00  3.17818529e+00   1.01937705e+00   6.95863340e-01
C     7.360346832799999e+00   3.963714223360091e+00   4.568370000000000e-02  3.97935299e+00   4.94051810e-01  -4.60206210e-01
C     8.664036870899999e+00   4.624649431681479e+00   6.017730000000000e-02 -1.89894584e+00   2.94578873e+00   3.58522080e-01
C     8.573172583199998e+00   5.276444653965284e+00   3.400813200000000e+00 -5.83906480e-01   6.78525180e-01  -4.88957250e-01
C     9.775975742200000e+00   6.011271591744619e+00   3.349740600000000e+00  1.58480152e+00  -1.30352742e+00   6.14874580e-01
C     9.863581546399999e+00   3.949993570540618e+00   5.490810000000000e-02  1.41338809e+00  -2.74435420e-01  -1.28557799e+00
C     1.108294546280000e+01   4.679050186597987e+00  -1.108155000000011e-01  3.27965170e+00  -1.42312749e+00   7.87520670e-01
C     1.105326498940000e+01   5.250236381439650e+00   3.364164600000000e+00 -1.33334714e+00   2.11181985e+00  -8.10328430e-01
C     1.230088677840000e+01   5.966624692329100e+00   3.296304600000000e+00 -8.41778950e-01  -1.59084894e+00   8.28207900e-02
C     3.766065700500000e+00   6.120626685627053e+00   1.222407000000000e-01  1.52014785e+00   2.05761034e+00  -1.66501102e+00
C     5.021024956400000e+00   6.843125085465469e+00   1.854300000000000e-02 -1.34578712e+00   2.17396570e-01   8.05598210e-01
C     4.832185053200000e+00   7.397863950661185e+00   3.453603600000000e+00  1.86360102e+00   2.85940565e+00  -8.09533800e-02
C     6.110000380699999e+00   8.100162125747692e+00   3.400214100000000e+00 -5.53129700e-02   1.89200920e-01   4.08705370e-01
C     6.249622467000000e+00   6.099161235692325e+00  -5.549099999999640e-03 -1.70918966e+00   3.12906830e-01  -4.17558050e-01
C     7.458502689099999e+00   6.780671702105901e+00   2.198910000000000e-02  1.71461057e+00   2.44515788e+00   6.39098430e-01
C     7.342370869599999e+00   7.397421800698529e+00   3.478534200000000e+00  1.25056950e-01   1.27793660e+00  -7.29871230e-01
C     8.576690236799999e+00   8.179135591122495e+00   3.468212100000000e+00 -2.59298960e-01  -1.44070669e+00  -6.64923440e-01
C     8.716846389999999e+00   6.095819237770662e+00   1.082307000000000e-01 -3.41760100e-02  -5.29141080e-01  -1.01420408e+00
C     9.982609445100000e+00   6.842873440826623e+00   6.663300000000000e-02 -1.80497843e+00  -2.69307583e+00  -2.48854460e-01
C     9.796757959999999e+00   7.422716569883014e+00   3.382360500000000e+00  1.28429680e-01   3.74170400e-01   2.30996350e-01
C     1.107206199480000e+01   8.069364562039581e+00   3.361197600000000e+00 -1.58507927e+00   8.25126120e-01  -6.16109470e-01
C     1.120853918480000e+01   6.069596448927212e+00  -8.316990000000146e-02 -2.81348488e+00   1.85531054e+00   1.10776349e+00
C     1.238305168670000e+01   6.807792794851848e+00   3.925710000000000e-02  1.57246684e+00   6.83404280e-01  -6.10958000e-03
C     1.227920942050000e+01   7.354015875676070e+00   3.311704500000000e+00  3.92512560e-01   1.95782121e+00   1.02537098e+00
C     1.347888168440000e+01   8.130672095582836e+00   3.477101100000000e+00 -9.73571000e-03  -2.23984962e+00  -1.23659010e+00
