72
Lattice="7.395 0 0 3.6975 6.40425786098592 0 0 0 13.6 " PBC="1 1 1" Properties=species:S:1:pos:R:3:force:R:3 Energy="-577.82572141"
C     3.709396558350000e+00   6.196409720516216e+00   1.131358160000000e-01  5.52522500e-01  -1.11689382e+00   6.52716840e-01
C     1.205103879075000e+00   5.708971279893882e-01   1.049736400000000e-01  9.01126730e-01  -3.08778883e+00  -1.09684020e-01
C     1.427263470750000e+00   1.045007347366382e+00   3.353236536000000e+00  5.14536990e-01  -4.84174530e-01  -1.72826110e-01
C     2.644511603700000e+00   1.804772764117924e+00   3.173552792000000e+00 -1.25924000e+00  -5.31439790e-01   7.65764500e-01
C     6.104345066775000e+00   6.204575085245137e+00   2.316334320000000e-01  2.55076530e+00   1.25464760e-01  -3.62978230e-01
C     3.712079834100000e+00   5.296974484521720e-01   1.595972240000000e-01 -2.11920276e+00  -4.46987080e-01   1.77790740e-01
C     3.798314629950000e+00   1.000303706226224e+00   3.292692464000000e+00  1.39045023e+00   2.24658531e+00   3.07150060e-01
C     5.016628197525000e+00   1.701320367967420e+00   3.432527528000000e+00  2.73406152e+00   9.34021350e-01   2.51581790e-01
C     8.611250695350000e+00   6.197969029219968e+00   2.993438879999999e-01  2.46864560e-01  -3.16066200e-01  -3.39170300e-01
C     6.212736687675000e+00   4.614071177413698e-01   2.938025680000000e-01 -3.26252347e+00   1.34673675e+00  -1.06899823e+00
C     6.314850545174999e+00   1.071899786759202e+00   3.593449256000000e+00  9.97003650e-01  -2.76233868e+00  -7.15195870e-01
C     7.607824254600000e+00   1.739575753996080e+00   3.406984008000000e+00 -2.91072638e+00  -6.21882090e-01   4.09110810e-01
C     1.206153340500000e+00   1.949145742248104e+00   3.549600000000000e-03  1.61846840e-01   4.20951130e-01   5.66040940e-01
C     2.450355693825000e+00   2.671904987509158e+00   1.354310181600000e+01 -9.92411790e-01   6.98820400e-02   3.32676570e-01
C     2.640880030125000e+00   3.271037912020078e+00   3.200299912000000e+00 -1.04716276e+00  -2.00602342e+00   8.06485920e-01
C     3.886794510825000e+00   3.930856687416259e+00   3.450274304000000e+00 -2.38052400e-01  -3.46201586e+00  -7.37962430e-01
C     3.685492812450000e+00   1.967886009683194e+00   2.373200000000000e-03 -6.74209300e-02  -1.57264763e+00   8.33333460e-01
C     4.916782978125000e+00   2.621280866147744e+00   2.132145440000000e-01 -4.56741580e-01  -2.98217350e-01  -4.35929880e-01
C     5.095062192749999e+00   3.120476563562358e+00   3.462065640000000e+00 -7.60084400e-01   1.03747695e+00   2.59914000e-03
C     6.361683449925000e+00   3.799411984628060e+00   3.479988264000000e+00 -3.24281633e+00   2.16957625e+00  -1.92908950e-01
C     6.138550750200000e+00   1.930544319123420e+00   2.654518720000000e-01  2.50276600e-02  -3.05219745e+00   4.27727700e-02
C     7.342107410400000e+00   2.584468743670414e+00   1.878680880000000e-01  1.86771775e+00   2.26715102e+00  -1.67651100e-02
C     7.517948530499999e+00   3.130574413100534e+00   3.321898872000000e+00  3.60847247e+00   3.70617630e-01  -1.41336440e-01
C     8.720292669525000e+00   3.924725122855937e+00   3.240746856000000e+00  2.77180838e+00  -1.02998044e+00   1.13295778e+00
C     2.394247647300000e+00   4.094326842272067e+00   2.239811200000000e-02  1.77231995e+00  -6.57046190e-01   5.85239790e-01
C     3.717895188150000e+00   4.727677332273496e+00   6.520533600000000e-02 -2.20973635e+00   1.90581365e+00   5.59317360e-01
C     3.893400168525000e+00   5.276856853348681e+00   3.613502864000000e+00  1.36632886e+00   2.96779479e+00  -3.29973740e-01
C     5.135627650125000e+00   6.007990498315206e+00   3.502530400000000e+00  5.79358220e-01  -2.43967240e-01  -1.57542590e-01
C     4.906281708374999e+00   4.004824969103158e+00   2.527880960000000e-01  1.03536945e+00   2.10565137e+00  -3.75843420e-01
C     6.149764269375000e+00   4.752379003137566e+00   3.873149440000000e-01 -1.13589395e+00   5.09323510e-01  -9.68905810e-01
C     6.372851748675000e+00   5.254686593488933e+00   3.440003720000000e+00 -9.60640930e-01   6.82010900e-01  -6.58829100e-02
C     7.577955923550000e+00   6.033290070693085e+00   3.368886192000000e+00 -9.66099770e-01  -2.40251756e+00   7.87862210e-01
C     7.377614798700000e+00   4.004655448397604e+00   3.378426320000000e-01 -2.02193632e+00   1.03509834e+00  -5.35861970e-01
C     8.532345971400000e+00   4.754669485961195e+00   2.710316800000000e-01  3.08526328e+00   1.01478388e+00  -8.69426890e-01
C     8.804933066400000e+00   5.307744396879725e+00   3.508811696000000e+00  3.44825750e-01   8.08694730e-01  -7.15778490e-01
C     1.009169216572500e+01   5.984228011866305e+00   3.671866584000000e+00 -2.97469013e+00   2.03039031e+00  -1.16629371e+00
C     7.409772141075000e+00   1.402242358458942e-01   6.581003416000001e+00 -1.74853902e+00   1.85260866e+00   8.76604830e-01
C     1.218004123800000e+00   8.943270718402021e-01   6.564966296000000e+00 -3.25677070e-01   8.73259170e-01   4.48984400e-02
C     1.110951404625000e+00   4.352786422686702e-01   1.026738378400000e+01 -4.83713570e-01  -1.00976836e+00  -5.79634710e-01
C     2.350718347875000e+00   1.118136863401358e+00   9.931444608000000e+00 -1.60851308e+00   1.64902930e-01   1.15227877e+00
C     2.449857122925000e+00   1.939733788726734e-01   6.688826800000000e+00  9.44041200e-02  -3.28376760e-01   1.18379540e-01
C     3.760217068949999e+00   8.326452307725551e-01   6.689372976000000e+00 -1.48681671e+00   1.19213683e+00   1.34564500e-02
C     3.570362904525000e+00   4.237765951521102e-01   9.944277024000000e+00 -1.48692543e+00  -2.21586183e+00   5.13220320e-01
C     4.739804470050000e+00   1.081621642318417e+00   1.007938826400000e+01  4.44655788e+00   2.51264532e+00   1.20203420e+00
C     5.023349550000000e+00   1.806885784956252e-01   6.799580712000000e+00 -2.68325788e+00  -6.00630220e-01  -6.16075610e-01
C     6.170926873650000e+00   9.454691695773325e-01   6.704863240000000e+00  2.57285939e+00  -1.93653333e+00  -7.11596800e-01
C     6.065442264224999e+00   4.450492342302006e-01   1.033031044000000e+01 -2.05374669e+00   8.30919360e-01  -9.22355770e-01
C     7.273144487474999e+00   1.168870113316706e+00   1.039776072800000e+01  1.12114670e+00  -5.92841210e-01  -9.22947610e-01
C     8.547786028874999e+00   2.379477607660553e+00   6.491017655999999e+00  1.82592118e+00  -3.27632846e+00   1.69267800e-01
C     2.417015632125000e+00   2.977828572286769e+00   6.516601568000000e+00  1.66388241e+00  -6.73379170e-01   2.19445810e-01
C     2.359910332875000e+00   2.529878401373724e+00   9.922793647999999e+00 -1.32110101e+00   1.09109293e+00   1.03302813e+00
C     3.594180498675000e+00   3.243986582989753e+00   1.003193351200000e+01 -1.92350892e+00   1.16573103e+00   4.56331930e-01
C     3.712313109375000e+00   2.260226868008109e+00   6.584315696000000e+00 -1.11018909e+00   3.98916910e-01   4.36199120e-01
C     4.901759370075000e+00   3.026655018466880e+00   6.675809967999999e+00  7.64181980e-01  -5.70841680e-01  -3.53780930e-01
C     4.777479591675000e+00   2.516320587484103e+00   1.016942856000000e+01  1.48303203e+00   6.87591610e-01  -2.42920420e-01
C     6.058681681274999e+00   3.264053428397962e+00   1.030308596000000e+01 -1.92837404e+00  -1.00741814e+00  -1.87879280e-01
C     6.189559648425000e+00   2.335050630459948e+00   6.605056511999999e+00 -2.26795684e+00   1.30583528e+00   5.21032050e-01
C     7.367436579524999e+00   3.094729461645222e+00   6.494727736000000e+00 -3.39198860e-01   1.39311531e+00   9.37525420e-01
C     7.290469308600000e+00   2.581815075383544e+00   1.030681072800000e+01 -4.82334980e-01  -3.05640020e-01  -2.42980800e-01
C     8.482337727599999e+00   3.274261239043595e+00   1.012708904000000e+01  2.41929634e+00   8.54096720e-01  -7.54049000e-02
C     9.825592482374999e+00   4.354320050316437e+00   6.574956992000000e+00 -6.02304570e-01   2.77252091e+00   5.27994220e-01
C     3.609368867325000e+00   5.131641074884124e+00   6.623953984000000e+00  2.09993871e+00  -2.33456890e-01   3.08766240e-01
C     3.497344156875000e+00   4.709835902429058e+00   1.021594912800000e+01  3.34649931e+00  -2.32958249e+00  -1.78599790e-01
C     4.726413788925000e+00   5.366595491930673e+00   1.030266966400000e+01  2.70309942e+00   1.69967128e+00  -5.04758380e-01
C     4.860267947775000e+00   4.451317274756953e+00   6.723644976000000e+00 -5.41295850e-01  -7.56914250e-01  -3.39218260e-01
C     6.048058357050000e+00   5.172117841794104e+00   6.790717592000000e+00  3.18452134e+00   1.45274925e+00  -9.50447570e-01
C     6.009846913050000e+00   4.651978107772195e+00   1.026067653600000e+01  1.69907400e-01   1.85920459e+00  -5.27850500e-01
C     7.271338332675000e+00   5.403489268695719e+00   1.010129704800000e+01 -1.54998300e+00  -4.19754730e-01   6.06535830e-01
C     7.365646360950000e+00   4.571394099630758e+00   6.646363656000000e+00 -1.48212192e+00  -3.64863397e+00   2.49679990e-01
C     8.632463474700000e+00   5.147873883239288e+00   6.708927192000000e+00  4.43007360e-01   7.85729340e-01  -3.09892290e-01
C     8.496547848675000e+00   4.739569206565994e+00   1.016833403200000e+01  7.19306870e-01  -1.19606626e+00  -5.78676840e-01
C     9.772111250775000e+00   5.475070683478196e+00   1.020671554400000e+01 -3.49933286e+00  -1.75833916e+00   1.63054670e-01
