72
Lattice="7.395 0 0 3.6975 6.40425786098592 0 0 0 13.6 " PBC="1 1 1" Properties=species:S:1:pos:R:3:force:R:3 Energy="-578.85354811"
C     3.722707521375000e+00   6.280712617154376e+00   1.323273893600000e+01 -6.52072980e-01   3.30540730e+00   1.08058902e+00
C     1.274757531975000e+00   6.417624186579607e-01   1.331500560800000e+01 -2.29717603e+00  -2.57239520e-01  -3.03402600e-01
C     1.309603437525000e+00   8.672531357796307e-01   3.738087432000000e+00 -1.99061970e-01  -4.72346090e-01  -6.99048630e-01
C     2.541022719900000e+00   1.595057527297635e+00   3.705928192000000e+00 -1.35842653e+00   5.88796390e-01  -1.01419590e-01
C     6.163712607450000e+00   6.335531975712139e+00   1.330226948000000e+01  4.69336410e-01  -3.85098560e-01  -9.01112700e-02
C     3.704539226550000e+00   6.627651182672520e-01   1.329116807200000e+01 -3.23533250e-01  -1.89737724e+00   7.31067890e-01
C     3.727653260399999e+00   8.360827802214890e-01   3.621765680000000e+00  1.37058866e+00   1.90893367e+00  -2.17168310e-01
C     4.979019409050000e+00   1.519149011649469e+00   3.524186768000000e+00  8.28790200e-02   1.14663664e+00   1.65255269e+00
C     8.614774375874999e+00   6.314077391668246e+00   1.333297977600000e+01 -1.04535621e+00  -7.42495540e-01   1.15632930e-01
C     6.132539058900000e+00   5.706718902404521e-01   1.327617026400000e+01  2.15243763e+00   1.36929306e+00  -4.88711220e-01
C     6.239434523400000e+00   8.184180438514082e-01   3.624802016000000e+00 -1.47027274e+00   1.35159526e+00  -1.91484900e-01
C     7.439779682999999e+00   1.522815065018848e+00   3.708729248000000e+00  2.31569332e+00   2.55720102e+00  -3.38196510e-01
C     1.231598315325000e+00   2.067814398903653e+00   1.333132248000000e+01 -1.56882690e+00   3.14520700e-02  -5.88284960e-01
C     2.415489193200000e+00   2.792016651545722e+00   1.341383640000000e+01  2.61249110e+00  -8.66591030e-01  -1.02640640e-01
C     2.503187311650000e+00   3.040014364405419e+00   3.683096512000000e+00  2.40253750e+00  -1.85349113e+00  -5.57706870e-01
C     3.791092857824999e+00   3.696672702590268e+00   3.555382992000000e+00 -2.16646572e+00   1.53224408e+00   1.24950770e+00
C     3.702894948300000e+00   2.038476173434101e+00   1.337364921600000e+01 -1.09138769e+00   1.98903367e+00  -7.32698510e-01
C     4.931043052424999e+00   2.744069317842052e+00   1.317769035200000e+01 -6.46583940e-01  -2.66323870e-01   7.46532820e-01
C     4.967771059424999e+00   2.982290674908145e+00   3.677986312000000e+00  8.18993870e-01  -2.68474817e+00  -1.66709134e+00
C     6.194277473549999e+00   3.648858065109458e+00   3.663440976000000e+00  2.89513681e+00   1.47332488e+00  -1.31111940e-01
C     6.144257212875000e+00   2.004355632450171e+00   1.312178959200000e+01  1.43904590e-01   6.33536360e-01   5.98792180e-01
C     7.362094024799999e+00   2.775058945243385e+00   1.309683590400000e+01  9.83795700e-01  -2.35491330e+00   1.00849540e+00
C     7.512981235050000e+00   3.006110351379736e+00   3.676478752000000e+00 -4.93778576e+00  -3.33826530e+00   3.02732810e-01
C     8.667989202599999e+00   3.706280690444733e+00   3.694806247999999e+00  1.65289926e+00   1.36033004e+00  -3.89458720e-01
C     2.446074469500000e+00   4.198738788377734e+00   1.341062489600000e+01 -1.08906593e+00   6.72753130e-01  -2.78289000e-03
C     3.686794776149999e+00   4.928986980652534e+00   1.331645319200000e+01 -1.37390400e-01  -3.29179089e+00  -1.31175240e-01
C     3.824552126925000e+00   5.148928344295936e+00   3.602688280000000e+00 -1.78400337e+00  -1.18845379e+00  -1.04751350e-01
C     5.023834218299999e+00   5.846654498348665e+00   3.603633751999999e+00  1.13132845e+00  -3.95556570e-01   5.26286090e-01
C     4.894391103000000e+00   4.168076354510469e+00   1.317860576800000e+01  8.05767320e-01   9.77701360e-01   7.33978760e-01
C     6.106803275699999e+00   4.912924589599027e+00   1.318772715200000e+01  1.55678745e+00  -1.03910796e+00  -5.52581330e-01
C     6.253995130500000e+00   5.068927571917810e+00   3.620244928000000e+00 -1.45983444e+00   1.67281121e+00   2.99465570e-01
C     7.441878531899999e+00   5.862431643757088e+00   3.665463160000000e+00  7.56828840e-01  -3.44384835e+00  -5.56069510e-01
C     7.383360676724999e+00   4.162858741589348e+00   1.308599724800000e+01 -1.89838161e+00   1.67475806e+00   1.96364194e+00
C     8.558852424524998e+00   4.876341995723398e+00   1.340148365600000e+01  2.06833303e+00   4.39129750e-01  -1.46045133e+00
C     8.675628348524999e+00   5.114993718917683e+00   3.648444120000000e+00  1.03411370e+00   2.07561607e+00   3.70817840e-01
C     9.960307086449999e+00   5.841776118966388e+00   3.669960680000000e+00 -1.10509625e+00  -2.26587426e+00  -7.65059400e-01
C     7.411860341175000e+00   8.552828733709260e-02   6.616847576000000e+00  2.52491419e+00  -7.04516070e-01   1.45875694e+00
C     1.273353406350000e+00   8.146964015238048e-01   6.847554711999999e+00 -1.05913434e+00  -1.33911569e+00  -4.23943650e-01
C     1.133970893400000e+00   5.635948010496804e-01   1.026682332800000e+01  1.54297555e+00   7.25975830e-01  -1.13320412e+00
C     2.362996229400000e+00   1.252708445089702e+00   1.014668582400000e+01  1.14813855e+00   1.41969426e+00   5.60723130e-01
C     2.500818767100000e+00   1.275716638047852e-01   7.000789312000000e+00 -7.81404500e-01  -2.82112615e+00  -4.75248080e-01
C     3.754561520850000e+00   7.463972969797344e-01   7.064590448000000e+00  6.97976800e-01   7.99621240e-01  -2.88898990e-01
C     3.626041671300000e+00   5.381806564986852e-01   9.975027168000000e+00 -1.94644809e+00   2.97480527e+00   1.58602627e+00
C     4.836835189425000e+00   1.285214600752282e+00   1.015518215200000e+01  1.24420607e+00   1.47418430e-01  -5.34086420e-01
C     5.025842145674999e+00   5.768885033451540e-02   6.949129168000000e+00 -3.73659200e-01   1.03591443e+00  -1.02717224e+00
C     6.264555338399999e+00   8.437663526316025e-01   6.721437831999999e+00 -3.60061600e+00  -1.97911996e+00   1.20755893e+00
C     6.092137548675000e+00   6.271222851900006e-01   1.012423236000000e+01  9.40290000e-04  -1.72979336e+00   2.82034430e-01
C     7.345126012424999e+00   1.323873006728072e+00   1.024968284000000e+01 -2.03910411e+00  -6.40793850e-01  -8.18407000e-03
C     8.638496648475000e+00   2.193741577375148e+00   6.890247968000001e+00  2.80720840e-01   2.64891000e+00   5.46507380e-01
C     2.515592682975000e+00   2.891525177620880e+00   7.068546144000000e+00 -2.05228377e+00  -9.11167400e-02  -1.78016327e+00
C     2.382397862325000e+00   2.739031088183590e+00   1.028563362400000e+01  1.16179417e+00  -3.11071956e+00  -6.85682670e-01
C     3.593285296950000e+00   3.433688193784649e+00   1.033463061600000e+01  2.09859379e+00  -5.80199370e-01  -6.48869070e-01
C     3.702902750025000e+00   2.159310237757273e+00   7.090502799999999e+00  2.81375197e+00   2.03334465e+00  -2.43677890e-01
C     4.980541447949999e+00   2.964557989362169e+00   7.024443792000000e+00 -2.41143880e+00  -3.15846134e+00  -3.87094250e-01
C     4.888713702675000e+00   2.709634648010090e+00   1.029887920800000e+01 -4.13382619e+00  -9.87091480e-01  -4.52766530e-01
C     6.058911702750000e+00   3.389259295306685e+00   1.022548708000000e+01  2.40664675e+00   1.62986604e+00   1.70233520e-01
C     6.180934896900000e+00   2.236138853132184e+00   6.858320336000000e+00  1.45565917e+00   1.62660777e+00  -5.85359700e-02
C     7.410108465674999e+00   2.986106075570818e+00   6.817860880000000e+00  2.49164360e-01  -1.30898633e+00   4.97299580e-01
C     7.317386849775000e+00   2.725397960221537e+00   1.027975434400000e+01  1.51471194e+00   3.63802560e-01  -1.16318568e+00
C     8.612965521900000e+00   3.436614299200883e+00   1.019486545600000e+01 -4.02287833e+00   1.16085129e+00   2.24574070e-01
C     9.861491361974998e+00   4.298404090685304e+00   6.790349576000000e+00  1.91279857e+00   3.46415460e-01   1.17700399e+00
C     3.708021088350000e+00   5.034917376296808e+00   6.731156800000000e+00 -1.24272934e+00   9.17898120e-01   3.50498440e-01
C     3.582202447424999e+00   4.831595702225893e+00   1.026628952800000e+01  1.52784400e+00   8.60590430e-01  -4.99239330e-01
C     4.848971419725000e+00   5.570162513120205e+00   1.021257279200000e+01 -1.24016757e+00  -2.02766977e+00   2.86849340e-01
C     4.919214860849999e+00   4.346624886199597e+00   6.935652112000001e+00  8.82507980e-01   8.99339930e-01  -2.98781360e-01
C     6.143257926524999e+00   5.068417985119890e+00   6.960453343999999e+00  9.45931260e-01   1.83231969e+00  -1.92996720e-01
C     6.053753061675000e+00   4.816513290710121e+00   1.016618604800000e+01  2.92045980e-01   1.65005555e+00  -5.72082510e-01
C     7.262729998050000e+00   5.582244337700831e+00   9.983289711999999e+00  2.12299310e+00  -3.64667137e+00   8.02473220e-01
C     7.392654306000000e+00   4.414968180122901e+00   6.905405576000000e+00  4.19813090e-01  -1.80968661e+00   6.03652500e-02
C     8.674237090199998e+00   5.045091308418361e+00   6.870835736000000e+00 -7.70405650e-01   1.05070130e+00  -5.73148300e-02
C     8.574415312950000e+00   4.868672320552841e+00   1.006308635200000e+01 -2.19836683e+00  -8.25152540e-01   9.28114200e-02
C     9.775522749149999e+00   5.542110774969569e+00   1.009609246400000e+01  5.47375590e-01   2.61346886e+00   3.91283840e-01
