72
Lattice="7.395 0 0 3.6975 6.40425786098592 0 0 0 13.6 " PBC="1 1 1" Properties=species:S:1:pos:R:3:force:R:3 Energy="-579.60624131"
C     3.716637002850000e+00   6.243256994847273e+00   1.353240337600000e+01 -1.07850761e+00  -1.42295200e-02  -4.08481450e-01
C     1.274832960975000e+00   5.142878434023330e-01   1.357388106400000e+01 -1.90674483e+00   2.97789440e+00  -1.53141240e-01
C     1.356442221300000e+00   9.719101728336001e-01   3.625700024000000e+00  4.52292680e-01  -3.65380960e-01  -4.23577250e-01
C     2.566015712325000e+00   1.710164776157237e+00   3.731407384000000e+00  1.03204008e+00  -1.21572916e+00  -1.15418300e+00
C     6.202235307000000e+00   6.280618026265784e+00   1.348429324000000e+01 -2.55869901e+00  -2.18459255e+00   2.78051630e-01
C     3.694814283900000e+00   5.575197220436844e-01   1.348974344000000e+01 -3.86430300e-01   4.47034870e-01  -3.08962640e-01
C     3.809325452175000e+00   9.948217255406430e-01   3.611080976000000e+00 -1.73670739e+00  -2.93426191e+00   3.51115770e-01
C     5.032699381275000e+00   1.613286927083232e+00   3.580616704000000e+00  7.49356730e-01   1.30495748e+00  -5.42133090e-01
C     8.561416714724999e+00   6.243399233414343e+00   1.346130828800000e+01  2.75114651e+00   6.48699500e-02  -2.39380240e-01
C     6.107237103375001e+00   5.061197248425319e-01   1.349854277600000e+01  1.90005484e+00   5.14104140e-01   2.89499710e-01
C     6.276401204024999e+00   9.171580589833663e-01   3.478473632000000e+00  6.59030030e-01   8.67796120e-01   4.82666200e-01
C     7.520051964299999e+00   1.655815105870926e+00   3.554045024000000e+00 -6.04061020e-01  -1.78594366e+00   4.27947700e-02
C     1.216215088425000e+00   1.993487094521122e+00   2.510383200000000e-02  6.33395910e-01  -6.60801840e-01  -6.70223050e-01
C     2.453672129475000e+00   2.699698826195772e+00   4.476453600000000e-02 -4.66908180e-01   7.14140980e-01  -1.03890073e+00
C     2.584206635850000e+00   3.105053829783906e+00   3.641038104000000e+00 -8.30068310e-01   1.73355063e+00   2.05263540e-01
C     3.801416166899999e+00   3.840318605325603e+00   3.617011120000000e+00  1.65329270e+00  -1.41564295e+00  -1.16533131e+00
C     3.684617244450000e+00   1.942688072877552e+00   1.350047724000000e+01 -3.76388880e-01   2.59576155e+00   1.53341459e+00
C     4.920686059125000e+00   2.638123680064072e+00   1.359831237600000e+01 -4.60722180e-01   1.97651873e+00  -1.06492635e+00
C     4.999332216899999e+00   3.022595423452004e+00   3.555595968000000e+00  2.09104624e+00   2.79389642e+00   8.79418320e-01
C     6.308063931824999e+00   3.739280870558634e+00   3.604159664000000e+00 -2.51030044e+00   6.44273290e-01  -5.04010840e-01
C     6.110174064600000e+00   1.904606434364634e+00   1.354157249600000e+01  2.03815135e+00   2.37977037e+00  -2.00899850e-01
C     7.384886191274999e+00   2.706181087916506e+00   1.348751100000000e+01 -1.50091261e+00  -9.65646710e-01   1.14999002e+00
C     7.524607691025000e+00   3.033311860256878e+00   3.618474480000000e+00  5.73583130e-01   2.79627199e+00  -3.51305110e-01
C     8.744849467875000e+00   3.821779751800210e+00   3.586738472000000e+00 -2.65979280e-01  -2.23744550e-01   6.90675550e-01
C     9.802713831375000e+00   4.180172012288073e+00   1.356284996800000e+01  2.39962337e+00  -2.84466820e+00  -4.65916800e-01
C     3.684404749125000e+00   4.842372659267544e+00   1.349881654400000e+01  5.64407700e-02  -6.12792340e-01   6.17660480e-01
C     3.869923225050000e+00   5.268909233387000e+00   3.442766696000000e+00 -1.48101956e+00  -1.94272555e+00   9.93700520e-01
C     5.086928099474999e+00   5.954915211300456e+00   3.500955792000000e+00  2.42609700e-01  -3.15217750e-01   4.19944970e-01
C     4.928764061324999e+00   4.131004091078865e+00   1.354151238400000e+01 -1.36295820e+00  -1.84958508e+00  -1.00627400e-02
C     6.125040491924999e+00   4.842671225768977e+00   1.347094252800000e+01  7.97832960e-01   5.27621980e-01   2.95015890e-01
C     6.294443081324999e+00   5.183773911312196e+00   3.580806152000000e+00  4.69673420e-01   4.22380500e-02  -2.13250460e-01
C     7.522613333474999e+00   5.920610163647580e+00   3.575062736000000e+00 -1.18482778e+00   2.08765972e+00   4.99592060e-01
C     7.334885675250000e+00   4.146805892880051e+00   1.349098090400000e+01  2.14200287e+00  -1.80376454e+00  -7.22298530e-01
C     8.611955327924999e+00   4.856233138383627e+00   1.341231292800000e+01 -2.59922085e+00  -1.22315446e+00   1.21598950e+00
C     8.754662595899999e+00   5.289953496629802e+00   3.610306592000000e+00  2.14455800e-02  -3.90195315e+00  -9.42906320e-01
C     9.997886627700000e+00   5.913247252428516e+00   3.477222568000000e+00  5.95755880e-01   1.81238457e+00   1.84876990e-01
C     7.445539611525000e+00   1.479984925473054e-01   7.008486640000000e+00 -8.83156440e-01  -4.05714100e-01  -2.13571200e-01
C     1.264665760350000e+00   8.871444404798977e-01   7.011826936000000e+00 -7.82652700e-02  -1.94105852e+00  -4.96041320e-01
C     1.125703579200000e+00   4.719150319103220e-01   9.907863704000000e+00 -1.91987982e+00   2.60151700e-02   5.03121320e-01
C     2.332593424725000e+00   1.164428760490796e+00   1.002784480800000e+01 -2.64789250e-01   1.14248273e+00   9.80093600e-02
C     2.502077987700000e+00   1.582881496083888e-01   6.867007880000000e+00 -9.49351250e-01   1.64998030e+00   4.84147250e-01
C     3.743287251750000e+00   8.085379390804717e-01   6.833843600000000e+00  1.07145532e+00   1.17014868e+00   4.57822220e-01
C     3.515304652200000e+00   4.525950510537456e-01   1.011386453600000e+01  3.40332613e+00   5.33695280e-01  -1.01455544e+00
C     4.818948570149999e+00   1.214778075147437e+00   9.972756648000001e+00 -1.70472874e+00  -1.28034987e+00   9.30518280e-01
C     5.016290985525000e+00   1.452003442031142e-01   6.920275272000000e+00 -1.28162484e+00   2.24621580e-01  -3.78838400e-02
C     6.226602460574999e+00   8.767867702003410e-01   7.028546096000000e+00 -1.10307580e-01   9.93461210e-01  -1.02764145e+00
C     6.056486179725000e+00   5.036431983280698e-01   9.899663447999998e+00 -5.32434200e-01   4.19413200e-02   3.03460570e-01
C     7.285380180524999e+00   1.251539732072830e+00   9.858325840000001e+00  6.90306980e-01  -2.37985427e+00   7.68005400e-02
C     8.642098568100000e+00   2.267078463279630e+00   7.082101400000000e+00 -1.06815540e+00   1.10207010e+00  -1.35191616e+00
C     2.481335345475000e+00   2.889322497172512e+00   6.959224040000000e+00  1.02391251e+00   3.47022571e+00   4.27282270e-01
C     2.348636396550000e+00   2.591946355147750e+00   1.001657367200000e+01 -4.89883630e-01   1.88928092e+00  -5.33291500e-02
C     3.575781036150000e+00   3.353568494338062e+00   9.949649160000000e+00 -5.54183690e-01  -2.21696378e+00   5.77784890e-01
C     3.744909640800000e+00   2.229244541460737e+00   6.884575408000000e+00 -1.66096923e+00  -6.89063630e-01   2.35516800e-02
C     4.932117619874999e+00   2.950196505153698e+00   6.919138448000000e+00  6.14481400e-01   3.00764982e+00  -7.15105000e-03
C     4.803115135650000e+00   2.640997462693590e+00   9.971602960000000e+00  4.91011000e-01  -1.27769565e+00  -7.01972880e-01
C     6.041243901525000e+00   3.302308366128572e+00   9.845741488000000e+00 -1.21324620e-01   1.81440908e+00   4.32397550e-01
C     6.183284953949999e+00   2.366422463970365e+00   6.955437256000000e+00  4.84595350e-01  -4.29126497e+00   1.74404690e-01
C     7.395677345025000e+00   3.042780555502889e+00   6.984008000000000e+00  8.95425710e-01  -3.22456200e-01   9.19590300e-02
C     7.302222071175000e+00   2.655963636929203e+00   9.799267024000001e+00 -1.14147579e+00  -7.07835960e-01   1.60267741e+00
C     8.500488052574999e+00   3.362417833806431e+00   1.000088280800000e+01  1.47554590e+00  -1.45100182e+00  -7.35837760e-01
C     9.879134315999998e+00   4.367419127215545e+00   7.008108832000000e+00 -9.79338660e-01  -1.54016380e-01  -9.17226230e-01
C     3.694076004075000e+00   5.093532666573351e+00   6.952229559999999e+00  7.98219080e-01   7.87098140e-01   4.05569890e-01
C     3.591405303075000e+00   4.731093299373441e+00   9.864981408000000e+00 -2.31309145e+00   1.46416934e+00   7.70186060e-01
C     4.798307978924999e+00   5.429653479927277e+00   9.903487631999999e+00  5.69990200e-02   2.00043414e+00  -8.51513400e-02
C     4.932350821200000e+00   4.402010060939291e+00   6.968777224000000e+00 -2.72663100e-01   4.17902960e-01  -7.69577560e-01
C     6.143771952974999e+00   5.201674196286368e+00   6.914504928000000e+00  2.39815700e-02  -4.33128447e+00  -1.97967790e-01
C     6.013111398825000e+00   4.748209831270707e+00   9.899060424000000e+00  3.14878360e-01  -1.74154996e+00   6.07758590e-01
C     7.213378984875000e+00   5.435357496232864e+00   1.005348407200000e+01  1.64339585e+00   1.22327200e+00  -3.08029030e-01
C     7.357330017899999e+00   4.444152255105763e+00   6.912439495999999e+00  2.28335505e+00   1.46496009e+00   2.11755760e-01
C     8.654577334799999e+00   5.150720832028372e+00   6.953278527999999e+00 -1.07404140e-01  -2.31128541e+00  -1.06231540e-01
C     8.485166278125000e+00   4.763257787879192e+00   1.001470992800000e+01  2.05993830e-01   4.91973830e-01   7.18716600e-02
C     9.721041417750000e+00   5.460688833729730e+00   9.929639888000001e+00  9.94742930e-01   6.44370320e-01   2.09155000e-01
