32
Lattice="9.86 0 0 4.93 8.53901048131456 0 0 0 30 " PBC="1 1 1" Properties=species:S:1:pos:R:3:force:R:3 Energy="-251.29914033"
C     5.074281971600000e+00   8.352577922629742e+00  -1.169089499999998e+00 -5.94750764e+00  -2.61166159e+00   1.37074467e+00
C     1.286678481500000e+00   5.307465512797448e-01  -1.204049699999999e+00  2.67187609e+00   4.18282290e-01   5.95368440e-01
C     7.456999039099999e+00   8.326145330298795e+00  -1.255943100000000e+00  6.14523450e-01   5.83804670e-01   1.81994339e+00
C     3.755978427500000e+00   4.048487470043016e-01  -8.506901999999990e-01 -1.40002673e+00   4.52495627e+00  -1.07073178e+00
C     9.911300100999998e+00   8.289636876381660e+00  -8.230709999999988e-01 -5.06869400e-02   3.94495071e+00  -8.12161660e-01
C     6.201090807499999e+00   4.701711524950440e-01  -9.966515999999999e-01  1.03355469e+00   1.72528823e+00   2.13492499e+00
C     1.235041676290000e+01   8.261024616235591e+00  -7.631319000000012e-01  2.61337530e+00   1.72034008e+00  -1.65975437e+00
C     8.707744476099998e+00   4.869443307809080e-01  -1.095736500000001e+00 -9.88205550e-01  -6.20399000e-02   1.02314913e+00
C     1.303064273200000e+00   1.932972386753408e+00  -8.234673000000008e-01 -2.52669448e+00  -1.55448354e+00  -1.41140880e+00
C     2.471004197700000e+00   2.562673773321261e+00  -6.214062000000027e-01  3.26063269e+00   4.28841866e+00   3.14246859e+00
C     3.758419024000000e+00   1.946987635434442e+00  -6.195464999999984e-01 -2.73214481e+00  -4.45390178e+00  -1.55922574e+00
C     4.896156043000000e+00   2.665490717659369e+00  -7.577004000000009e-01  3.87061622e+00   1.40819566e+00  -1.37440250e-01
C     6.183376479400000e+00   2.009961471482765e+00  -1.016778600000002e+00 -5.11547100e-01  -2.50629659e+00  -4.07081970e-01
C     7.420178397399999e+00   2.727603138330470e+00  -1.204781100000002e+00  6.08155910e-01  -5.50291424e+00   1.36220845e+00
C     8.656647491099999e+00   1.916426602316626e+00  -1.110363300000003e+00  1.68819031e+00   2.13783019e+00   2.13529260e-01
C     9.986585785899999e+00   2.708694268133454e+00  -8.258565000000004e-01 -2.75242528e+00  -1.07500556e+00  -4.58008770e-01
C     2.474807199700000e+00   3.996108923588381e+00  -1.138323000000021e-01  1.18283291e+00   2.25433256e+00  -2.15871832e+00
C     3.769689102600000e+00   4.802010058927682e+00  -2.953907999999998e-01 -1.42046918e+00  -4.88957559e+00   2.12642000e-01
C     4.919782476400000e+00   4.112076968746948e+00  -6.704030999999979e-01  3.87486654e+00  -1.29681955e+00  -8.44711650e-01
C     6.289838547599999e+00   4.786982425164139e+00  -1.002120300000001e+00 -3.85868751e+00   2.49170060e-01   1.04048431e+00
C     7.516605154799999e+00   4.059935550613342e+00  -1.108842899999999e+00 -2.04453170e-01   3.09760378e+00   3.38671670e-01
C     8.783657602100000e+00   4.743283782862425e+00  -9.147275999999991e-01 -3.27957729e+00   3.19246644e+00  -5.13160350e-01
C     9.983076168200000e+00   4.165792980413064e+00  -5.953106999999989e-01  6.23962040e-01  -2.76354263e+00   2.69068100e-01
C     1.115763200480000e+01   4.898348199844299e+00  -1.409756999999985e-01 -9.16746540e-01  -3.68167604e+00  -1.35975664e+00
C     3.771255215700000e+00   6.132912613905678e+00  -4.273871999999983e-01  6.45701900e-02   4.43965752e+00  -7.58057530e-01
C     4.920494417700001e+00   6.851075501953082e+00  -9.077510999999987e-01  1.84018648e+00   2.40867887e+00  -4.40837530e-01
C     6.150695854500000e+00   6.223119916077865e+00  -1.067683199999998e+00  2.34641205e+00  -2.15644887e+00  -5.83012920e-01
C     7.424305251100000e+00   6.907967854737549e+00  -1.267030500000001e+00 -6.54252450e-01  -1.97472960e-01   7.63405340e-01
C     8.629906037200000e+00   6.201372508017086e+00  -9.913728000000006e-01  2.16219231e+00  -2.37613540e-01   6.68857500e-01
C     9.852433435999998e+00   6.971730951524539e+00  -7.231991999999998e-01  1.09512875e+00  -5.67950496e+00   1.20083577e+00
C     1.108798333120000e+01   6.305906732752828e+00  -2.292468000000021e-01  1.45901924e+00  -1.02130542e+00  -1.35144118e+00
C     1.243854016780000e+01   6.861468758558814e+00  -3.667161000000014e-01 -3.76667051e+00   3.29628677e+00  -6.30792160e-01
