2
Lattice="0.0 1.7408400000000002 1.7408400000000002 1.7408400000000002 0.0 1.7408400000000002 1.7408400000000002 1.7408400000000002 0.0" Properties=species:S:1:pos:R:3 Energy=-10.501261485 pbc="T T T"
C        0.00000000       0.00000000       0.00000000
C        0.87042000       0.87042000       0.87042000
