64
Lattice="7.10842262195238 0 0 0 7.10842262195238 0 0 0 7.10842262195238 " PBC="1 1 1" Properties=species:S:1:pos:R:3:force:R:3 Energy="-513.22142999"
C     7.365747518843999e-04   7.080357074727489e+00   7.102036697455096e+00 -3.36556740e-01   2.12444073e+00  -4.63831340e-01
C     1.811863282579657e+00   1.840834014388598e+00   7.106894664557831e+00 -1.63319878e+00  -2.12720342e+00  -1.21540328e+00
C     7.106437877320269e+00   1.784110578986653e+00   1.740419938868894e+00  3.66924390e-01  -3.95901350e-01   3.85757920e-01
C     1.753421528177779e+00   3.140017740777840e-02   1.745887524295520e+00  9.72990200e-01  -1.19890110e+00   6.01324840e-01
C     8.850918786947745e-01   9.052034544766356e-01   8.362538165051954e-01  5.35645800e-01   2.55176500e-02   1.15329479e+00
C     2.650647768621798e+00   2.672543203060149e+00   8.971005635320977e-01  7.99233210e-01   6.98283860e-01   1.00961939e+00
C     8.635805834148089e-01   2.627690691265151e+00   2.689490109091586e+00 -2.28155500e-02   1.69037273e+00  -8.19782250e-01
C     2.652451246524719e+00   8.983067206822593e-01   2.679006536327384e+00 -1.16036890e-01   1.32260410e-01  -5.82486460e-01
C     3.548733914950159e+00   7.053558321450090e+00   3.150872302118580e-02  1.67613500e-02   1.50446539e+00  -8.26099730e-01
C     5.313264414914248e+00   1.768628505604519e+00   3.596719677267600e-03  7.62703360e-01   6.21784840e-01  -5.05649000e-03
C     3.551795370404141e+00   1.820470160687953e+00   1.792549982658021e+00 -9.77433000e-03  -2.10810939e+00  -1.66557900e-02
C     5.343182912711113e+00   6.581972840762800e-03   1.754707441829737e+00  2.59987000e-03  -6.18240960e-01   1.60351166e+00
C     4.425908290362324e+00   8.971483321321039e-01   9.412627764064667e-01  2.36483540e-01  -8.65346750e-01  -2.00197515e+00
C     6.265999616755584e+00   2.656752197630949e+00   8.372658426336047e-01 -1.59211753e+00   7.25995290e-01   1.14337153e+00
C     4.492278068512288e+00   2.640350294361788e+00   2.651484216711494e+00 -9.35162550e-01   7.35785420e-01   9.53259480e-01
C     6.228570288534201e+00   8.930214662958369e-01   2.635571870508171e+00  1.95112070e-01  -1.46518460e-01   1.06675667e+00
C     2.498681635156200e-02   3.583566749641135e+00   7.062099730986056e+00 -7.59800380e-01  -7.29592640e-01   1.33887381e+00
C     1.768973050848910e+00   5.338915086854292e+00   1.729834644577000e-03  4.87772960e-01  -1.46460959e+00   3.44628020e-01
C     7.103518874655593e+00   5.346710538520515e+00   1.737338437663124e+00 -7.35438850e-01  -3.47044870e-01   1.08619570e+00
C     1.791047404284606e+00   3.529878113108347e+00   1.828019945268428e+00 -1.18050114e+00   9.62477140e-01  -1.23280268e+00
C     8.668735601935239e-01   4.453550671236266e+00   9.159428593709317e-01  1.52932852e+00  -8.18826230e-01  -1.21253737e+00
C     2.678076754648687e+00   6.159371429265703e+00   8.885288010315444e-01 -3.93415340e-01   1.99822162e+00   7.21292040e-01
C     8.407839431566952e-01   6.235325493634213e+00   2.630522402500055e+00  1.98503873e+00  -6.45111100e-02   5.11059570e-01
C     2.684615934785278e+00   4.444273682127584e+00   2.665628769293448e+00 -3.66216300e-02  -8.81125690e-01   6.36497700e-01
C     3.538205274786546e+00   3.569125349330569e+00   5.675663173558040e-02  9.97176840e-01  -5.11597170e-01  -1.56692120e+00
C     5.337707294766927e+00   5.348491553807955e+00   7.893192477248000e-03 -4.11865030e-01  -1.86181410e+00  -8.23937040e-01
C     3.604153168054012e+00   5.304830626896749e+00   1.802331101098915e+00 -1.47401908e+00   7.38043840e-01   1.17737720e-01
C     5.352305862301622e+00   3.534196053344639e+00   1.788624640603031e+00  3.16919930e-01   6.97536310e-01  -1.55538773e+00
C     4.452709318334963e+00   4.435298232306440e+00   9.126226573335819e-01  4.17405450e-01  -6.58465000e-02  -1.24784560e-01
C     6.228101345893959e+00   6.193135157194632e+00   8.506031627428322e-01 -5.54630600e-01   1.85610546e+00   8.47589810e-01
C     4.473079285279062e+00   6.209219029635776e+00   2.715681731993012e+00 -5.22732920e-01   5.26933990e-01  -1.31277359e+00
C     6.201533616351711e+00   4.481896075107326e+00   2.612769401343509e+00  5.35159640e-01  -1.49719076e+00   2.40655463e+00
C     1.727048142909960e-02   7.101011733997519e+00   3.554403379579192e+00 -1.61718426e+00  -4.90644600e-02  -4.95191200e-01
C     1.712094438581171e+00   1.777313363108956e+00   3.564013398287623e+00  2.04449123e+00  -1.50498289e+00   2.79962980e-01
C     2.679064967561320e-02   1.748136558128262e+00   5.307095014922350e+00 -1.00004492e+00   7.30931440e-01   1.28729558e+00
C     1.789989884251428e+00   7.071390652603074e+00   5.326751082982722e+00  1.04566690e-01   1.51150941e+00   1.13364077e+00
C     8.946119758570619e-01   8.190383542671745e-01   4.470706920313863e+00 -5.98384700e-02   1.95713820e+00  -1.19951859e+00
C     2.635687240207294e+00   2.664745192361782e+00   4.410622835949860e+00  3.21347540e-01  -5.40128210e-01   4.14086000e-01
C     8.843442858878290e-01   2.709205674649287e+00   6.181320532294834e+00  1.21130742e+00  -1.26590844e+00   2.17176890e-01
C     2.682107017021549e+00   8.922738734888913e-01   6.218289376898895e+00 -4.07989390e-01  -3.18290930e-01   3.69395540e-01
C     3.578755840296145e+00   9.447520167337199e-03   3.564422559093630e+00 -6.03807380e-01   8.01694400e-01  -3.11469540e-01
C     5.356643777205476e+00   1.783738595230948e+00   3.585328998692860e+00 -3.63899150e-01  -7.33330820e-01  -1.62236739e+00
C     3.535284850437345e+00   1.784163394566719e+00   5.313352061765153e+00 -9.32369000e-03   6.45114000e-01   1.06465050e+00
C     5.271480751332756e+00   2.507517404472860e-02   5.366465697992210e+00  1.87935318e+00  -4.56281990e-01  -1.13718195e+00
C     4.433060287612985e+00   9.426666187896906e-01   4.461877761830239e+00  3.33860290e-01  -1.69779670e+00  -4.91376490e-01
C     6.223584227655854e+00   2.648292606039340e+00   4.451514676829446e+00  6.10570300e-02   9.28356060e-01  -2.64517150e-01
C     4.437694481571642e+00   2.691786840440108e+00   6.243471035114472e+00 -6.22824560e-01  -1.14216465e+00  -7.55937300e-02
C     6.219044646802271e+00   9.112640956024475e-01   6.215390846491363e+00 -7.40637230e-01  -1.39519900e+00   3.99126570e-01
C     7.086106793447903e+00   3.572039873688996e+00   3.551497954001720e+00  7.83840500e-02  -1.00187930e-01  -3.29950700e-01
C     1.769463674178143e+00   5.348358626304962e+00   3.540272617337120e+00  4.61237370e-01   7.26091700e-02  -3.07914980e-01
C     1.040097289335780e-02   5.371885585903054e+00   5.336821443140023e+00 -1.00876336e+00  -8.78199110e-01   1.59475330e-01
C     1.772430445442826e+00   3.558633530796128e+00   5.288883236169911e+00  3.22368640e-01   5.79293900e-01   7.06300710e-01
C     8.596417353568407e-01   4.478068260610682e+00   4.432691502647460e+00  1.19657727e+00  -2.86208920e-01  -9.25915200e-02
C     2.700606047132063e+00   6.254180371381085e+00   4.437741041739804e+00 -1.29568621e+00  -1.79634388e+00   9.38002800e-02
C     8.747998779201811e-01   6.240327264126550e+00   6.247259113528669e+00  1.40232356e+00  -1.28323395e+00  -1.34754217e+00
C     2.703205028610387e+00   4.392308482659014e+00   6.226469891818443e+00 -2.29336286e+00   2.32012566e+00  -5.92182930e-01
C     3.583867791339093e+00   3.489475118452339e+00   3.534004339186578e+00 -1.08505578e+00   2.14478401e+00   5.42543160e-01
C     5.327143823332476e+00   5.315247806993680e+00   3.606104216810524e+00  2.60221110e-01   3.14216590e-01  -1.60066092e+00
C     3.558126558094870e+00   5.328704477518698e+00   5.319128579238843e+00 -4.48938380e-01  -1.34184114e+00   2.95808740e-01
C     5.304920548442892e+00   3.542645195554998e+00   5.338880113415001e+00  1.22397416e+00   2.68066930e-01   6.80346360e-01
C     4.417992848522276e+00   4.403701080507862e+00   4.457400521843033e+00  9.76359230e-01   4.15669890e-01  -6.43001920e-01
C     6.205845869849907e+00   6.234827477545456e+00   4.452957189031722e+00 -1.02157430e-01   4.24818800e-02   3.72614900e-01
C     4.419749197583226e+00   6.166235890821386e+00   6.206486623064873e+00  8.58352160e-01   2.21778358e+00   1.21415095e+00
C     6.227720121188849e+00   4.448593683806436e+00   6.227346004906359e+00 -4.86204950e-01   5.09419930e-01  -8.53205810e-01
