64
Lattice="7.10842262195238 0 0 0 7.10842262195238 0 0 0 7.10842262195238 " PBC="1 1 1" Properties=species:S:1:pos:R:3:force:R:3 Energy="-512.75632412"
C     7.082864073217111e+00   7.105997865960092e+00   2.314992886232780e-02  8.28713630e-01   3.66121290e-01  -4.62902970e-01
C     1.818749638077008e+00   1.770226123588364e+00   7.103312517146934e+00 -5.20408980e-01  -6.78020800e-02   2.19752220e-01
C     2.482602383189760e-02   1.805417364947841e+00   1.797812845513191e+00 -1.35919963e+00  -7.61940570e-01  -1.17257200e-01
C     1.754046927199887e+00   7.083943842613089e+00   1.755396105813163e+00  3.17774870e-01   2.57300226e+00   7.49092080e-01
C     8.590444856883084e-01   9.451438329885343e-01   8.942505836510610e-01  1.73116099e+00  -2.04745779e+00  -6.79738740e-01
C     2.700709545765410e+00   2.637268864240244e+00   9.183909290370335e-01 -1.15805666e+00   1.28438815e+00  -1.12909137e+00
C     8.824724960435306e-01   2.659613550988178e+00   2.709596993314518e+00  9.42953890e-01   8.96750300e-01  -1.17344053e+00
C     2.653467253369795e+00   9.171888236877652e-01   2.666070415590829e+00 -3.34122580e-01  -1.77234151e+00   5.70213310e-01
C     3.534224060529763e+00   7.049658854053436e+00   2.333197556562600e-03  4.07578030e-01   1.01599276e+00   3.80271680e-01
C     5.298470507925956e+00   1.796416111552587e+00   3.206495709120080e-02  6.86660950e-01  -2.36397465e+00  -8.40375550e-01
C     3.550488700158132e+00   1.751252890604870e+00   1.770086869589238e+00  1.33606800e-01   7.97784000e-03   9.36226490e-01
C     5.320082956059804e+00   7.095451739076833e+00   1.828086337935700e+00  6.24390040e-01   1.20476630e+00  -1.35385510e+00
C     4.399663638628154e+00   8.258711833421972e-01   9.058297065094577e-01  1.54769286e+00   1.61928391e+00  -1.53280990e-01
C     6.209822747968892e+00   2.650597938579232e+00   8.630622372373586e-01  6.52525770e-01   5.04944460e-01   1.56137848e+00
C     4.448873826741890e+00   2.664129745131343e+00   2.634007662110641e+00  4.57746590e-01   3.10023170e-01  -1.40058300e-02
C     6.254744282547530e+00   9.107650843345235e-01   2.678190062905250e+00 -1.51628038e+00  -5.20537750e-01   4.25321250e-01
C     5.433308612751760e-02   3.495554881234999e+00   4.822069568503200e-02 -1.65711366e+00   1.56150258e+00  -2.60122539e+00
C     1.752774164129776e+00   5.357763282683900e+00   1.413268151617920e-02  7.67376940e-01  -1.98945407e+00  -3.15975460e-01
C     7.102950129761767e+00   5.365558876518575e+00   1.769503765681720e+00 -5.26988210e-01  -2.15616590e+00   2.71409110e-01
C     1.771418206061738e+00   3.568694152414440e+00   1.767866198362750e+00  1.44976086e+00  -1.32208148e+00   1.64022625e+00
C     8.734869522622671e-01   4.396559674806904e+00   9.128276642419428e-01  6.66688590e-01   2.09931088e+00  -4.48330350e-01
C     2.680136917692416e+00   6.211485976693520e+00   9.415408578993611e-01 -2.34587408e+00   3.68367600e-01  -2.74464580e+00
C     8.507108553455252e-01   6.233078023654448e+00   2.601395569730378e+00  1.50557172e+00  -1.77623190e-01   2.26986626e+00
C     2.728919818522464e+00   4.438106627915150e+00   2.662119341045954e+00 -2.58425218e+00   4.82396000e-01  -8.84195040e-01
C     3.588296267547126e+00   3.543006516676773e+00   2.067243032657920e-02 -2.59014966e+00   8.18208100e-01  -1.02816842e+00
C     5.330130427096270e+00   5.344652436919346e+00   7.158821336375800e-03  1.02410906e+00   5.59697660e-01  -1.85350264e+00
C     3.537827959713876e+00   5.368174704958509e+00   1.749816491646046e+00  1.65085886e+00  -1.92000869e+00   1.37399808e+00
C     5.341689930708235e+00   3.565068146035978e+00   1.720025447866757e+00 -4.14354550e-01   7.35521680e-01   1.52933504e+00
C     4.433031782838279e+00   4.485414815388452e+00   8.066743904673038e-01  7.97481740e-01  -9.60606880e-01   3.01890811e+00
C     6.242950698578688e+00   6.246110108096373e+00   9.123965384100399e-01 -1.95190296e+00  -1.07037584e+00  -2.13550280e-01
C     4.419552862950462e+00   6.240601293818551e+00   2.669916854154737e+00  2.07671180e-01  -2.25608090e-01   5.12310490e-01
C     6.215748968822959e+00   4.467477706086049e+00   2.697068256278315e+00  7.32299200e-02  -5.03864530e-01  -1.75821901e+00
C     7.100499145642391e+00   7.077604124815216e+00   3.569038839827284e+00  3.34806200e-01   1.75450227e+00  -3.52724020e-01
C     1.790636537457170e+00   1.770323437894032e+00   3.572067738705666e+00 -4.82427710e-01   4.10501030e-01  -5.17498890e-01
C     4.614318809011080e-02   1.759259604591359e+00   5.346562398993114e+00 -1.73901301e+00   3.01525830e-01   4.54375400e-01
C     1.751272723103979e+00   7.084621062036097e+00   5.309026657685108e+00  1.05185380e+00  -2.68429650e-01   1.69706920e+00
C     9.103156187722610e-01   8.963246792031246e-01   4.469921226361674e+00 -4.10974680e-01  -1.14671469e+00  -1.09743742e+00
C     2.670561517002145e+00   2.667111444083528e+00   4.427816190993533e+00  7.45319310e-01  -1.38702470e-01   5.36403200e-01
C     9.433262093246003e-01   2.673886055177293e+00   6.218168818051260e+00 -6.88935060e-01  -8.21807970e-01  -6.25347100e-02
C     2.668822228155483e+00   8.192304949305931e-01   6.251947615836142e+00 -2.20799840e-01   1.40688590e+00  -1.65782814e+00
C     3.525677177508379e+00   1.142032069706580e-02   3.603071621552380e+00  6.50740700e-01   3.04233620e-01  -2.24376976e+00
C     5.337621140684774e+00   1.829243020464426e+00   3.554809057258116e+00  3.65046310e-01  -1.84192474e+00  -1.11178853e+00
C     3.596466617422327e+00   1.760376622121866e+00   5.317847001724684e+00 -2.36454904e+00   3.46375470e-01   1.25600208e+00
C     5.303443773643586e+00   3.463159524660420e-02   5.325183249289654e+00  1.09116242e+00  -9.11203480e-01   3.03381530e-01
C     4.449243038212773e+00   9.251355425873418e-01   4.410346105057264e+00  2.14251120e-01  -6.75194660e-01   1.15851929e+00
C     6.207580111716508e+00   2.651274873665335e+00   4.443150124848265e+00  9.39650430e-01   9.34847900e-01   1.13575226e+00
C     4.391187839832971e+00   2.650811404510510e+00   6.265440681484974e+00  2.27197456e+00   3.32744580e-01  -2.05663258e+00
C     6.224234506157132e+00   8.396930135372038e-01   6.253956384984328e+00 -9.26936510e-01   2.52257689e+00  -1.04937653e+00
C     2.940811305274960e-02   3.549620761756230e+00   3.576470340255363e+00 -1.71951271e+00   8.24898020e-01  -1.53192700e-01
C     1.767565085580567e+00   5.364602580423507e+00   3.490516999955752e+00  6.10284980e-01  -1.32928310e+00   1.24390057e+00
C     2.890355721518200e-03   5.328926047051763e+00   5.321294586695383e+00 -3.72720070e-01  -4.07325390e-01   5.60204770e-01
C     1.780775164924896e+00   3.557715051509398e+00   5.291992175886993e+00  4.69958410e-01   7.75493920e-01   1.31112198e+00
C     8.927212776085942e-01   4.475407791276695e+00   4.433761462420223e+00  2.80575880e-01  -9.32647550e-01  -7.56072510e-01
C     2.655835282197196e+00   6.192711424122254e+00   4.435555699373737e+00 -7.07351260e-01   1.32702895e+00  -5.24125750e-01
C     8.677847888891818e-01   6.186901070556892e+00   6.211097856818467e+00  2.45385350e-01   1.65971604e+00   8.22797490e-01
C     2.656150896161524e+00   4.459474404142417e+00   6.206582728938696e+00  3.64762600e-01  -9.85649920e-01   1.90842910e-01
C     3.582107603729928e+00   3.539524740193270e+00   3.541919567773948e+00 -3.19576270e-01   7.03514520e-01  -5.98897620e-01
C     5.293928439124455e+00   5.356158982782793e+00   3.544877453510356e+00  1.66605785e+00  -2.98068400e-01   1.72794850e-01
C     3.542699503903814e+00   5.309414137802125e+00   5.279026555196566e+00  2.71528460e-01   6.34610680e-01   1.42944313e+00
C     5.300704542986970e+00   3.550396432832525e+00   5.324869483515208e+00  1.47932572e+00   3.16147650e-01   5.80977860e-01
C     4.466401561985608e+00   4.474947591996275e+00   4.388921248196358e+00 -1.36802831e+00  -1.99251909e+00   1.94584272e+00
C     6.213032840539858e+00   6.217323839854421e+00   4.474554922730747e+00 -6.44311530e-01   4.63727440e-01  -1.25758088e+00
C     4.419927974412119e+00   6.236259042776898e+00   6.192767793913631e+00  5.43678110e-01  -1.06171151e+00   1.18099430e-01
C     6.255626153457767e+00   4.439786774685613e+00   6.208716179819636e+00 -1.15304453e+00  -7.48893330e-01   8.21822830e-01
