64
Lattice="7.10842262195238 0 0 0 7.10842262195238 0 0 0 7.10842262195238 " PBC="1 1 1" Properties=species:S:1:pos:R:3:force:R:3 Energy="-502.65051547"
C     7.084708282381644e+00   5.347318024317620e-02   7.073278365314041e+00 -5.32311610e-01  -1.57336476e+00   2.09641642e+00
C     1.778668299544554e+00   1.742015779747084e+00   2.091056248434920e-02  1.36271910e+00   7.44180230e-01  -1.43997261e+00
C     5.984346425831540e-02   1.884939786387364e+00   1.793459505332251e+00 -1.06609245e+00  -2.15291773e+00  -1.69177172e+00
C     1.832185907429106e+00   7.098384745334072e+00   1.753862392548672e+00 -1.80481308e+00   8.89429100e-01   5.23797200e-01
C     8.712621581506595e-01   9.086454948776921e-01   8.868149603378623e-01  9.24377570e-01   1.42532230e-01   5.89892640e-01
C     2.818450401421364e+00   2.637690535870062e+00   8.503436342329760e-01 -5.16515627e+00   4.64542530e-01   1.63687829e+00
C     9.997114259782858e-01   2.698682436886865e+00   2.612725186954813e+00 -2.35961289e+00   5.34305200e-02   2.03449258e+00
C     2.653952189960932e+00   8.748898705505503e-01   2.740334310312981e+00 -1.05790470e+00   2.24001533e+00  -2.50425062e+00
C     3.548212796487887e+00   7.098522364395994e+00   3.281254989814620e-02  8.26296700e-01   4.86824380e-01  -4.50428940e-01
C     5.307743445233746e+00   1.708401684114307e+00   9.268764663712059e-02  2.32221030e-01   3.22863016e+00  -2.23621016e+00
C     3.584696988837715e+00   1.812815740126511e+00   1.791546842057887e+00 -1.45728620e+00  -3.41098670e-01   1.60383965e+00
C     5.302645711036040e+00   1.442173130517626e-01   1.857990476718873e+00 -3.57585510e-01  -6.27900541e+00  -1.58724720e+00
C     4.384411238380872e+00   9.025613248730078e-01   1.022883888540319e+00  1.43063467e+00  -2.50863830e-01  -3.76357834e+00
C     6.256844750347513e+00   2.712543576658960e+00   8.644571230080812e-01  1.90424830e-01  -7.09573620e-01   6.28895900e-02
C     4.485715501665279e+00   2.660796961185956e+00   2.647459925413633e+00 -7.39131650e-01   7.82719220e-01  -8.79979400e-02
C     6.218069584471485e+00   8.671244164277838e-01   2.694340612350569e+00  1.27272722e+00   3.51172050e+00  -1.68367852e+00
C     7.099671227659839e+00   3.544239543664438e+00   6.961923076781860e+00  1.32765287e+00  -1.31764335e+00   3.94594351e+00
C     1.807833944301736e+00   5.278201054077705e+00   7.090669761011907e+00 -5.39384530e-01   4.38039301e+00   6.10952340e-01
C     4.045360662506280e-02   5.429977676996255e+00   1.747744102115411e+00 -1.37582464e+00   5.35784800e-02  -3.28338390e-01
C     1.919428431255080e+00   3.597267167977792e+00   1.802755047423972e+00 -2.57469950e+00  -1.08351868e+00  -1.93922815e+00
C     9.698131161016611e-01   4.629115630452645e+00   9.111452427762411e-01 -1.91595138e+00  -7.16170531e+00  -4.62833820e-01
C     2.662854778450220e+00   6.259261116448729e+00   8.351391447541532e-01  1.11428150e-01  -1.81223143e+00   1.94820485e+00
C     9.324689467832648e-01   6.210709523690737e+00   2.612593752220569e+00 -8.12822170e-01   1.39164347e+00   1.70854171e+00
C     2.694275285946691e+00   4.456431288418796e+00   2.707389970259460e+00 -8.66179340e-01   5.42681950e-01  -1.18921816e+00
C     3.597271859536721e+00   3.501229677180997e+00   7.104841041262913e+00  2.82631820e-01   3.05260677e+00  -3.52369860e-01
C     5.408234078465067e+00   5.305835544602538e+00   4.765841945579000e-02 -3.94762125e+00   8.52051930e-01  -1.32597527e+00
C     3.496282854795512e+00   5.333696367303592e+00   1.787386708803758e+00  1.79888711e+00   1.49832027e+00  -1.55309700e-01
C     5.398705024690278e+00   3.637542992953129e+00   1.745431590068673e+00 -8.67260520e-01  -2.12780923e+00   4.95427670e-01
C     4.418916516957519e+00   4.436064022675293e+00   8.684350673904594e-01  2.10174342e+00   9.14355150e-01   2.24853166e+00
C     6.152283905408207e+00   6.329310569567936e+00   8.769962383413088e-01  2.41216481e+00  -1.71953674e+00   1.79066922e+00
C     4.313149941373409e+00   6.212734428958270e+00   2.824963138225808e+00  1.55386746e+00   1.19637243e+00  -6.05804856e+00
C     6.299930961289893e+00   4.534628486629273e+00   2.624184106386705e+00 -2.69240434e+00  -1.41923300e-01  -7.43926390e-01
C     2.941927327626300e-02   4.083611084624500e-02   3.416396339949392e+00 -3.55267340e-01  -3.65649940e+00   4.24876726e+00
C     1.688712917309883e+00   1.717082560902077e+00   3.659758590746284e+00  4.86480021e+00   2.76162508e+00  -4.51887935e+00
C     4.808627541328780e-02   1.757108382653868e+00   5.198743674705154e+00 -3.30407355e+00  -2.68427380e-01   2.93690772e+00
C     1.827221882660881e+00   7.075240361041388e+00   5.424887406642299e+00 -4.70967134e+00  -2.06062600e+00  -3.67968641e+00
C     8.918602343766336e-01   7.991470685023072e-01   4.426708698749336e+00 -1.59858494e+00   5.75038540e-01   9.48491830e-01
C     2.672762426813749e+00   2.703917221472686e+00   4.457449356706432e+00  5.21298600e-02  -2.30875385e+00  -2.15699032e+00
C     9.294086286769024e-01   2.546341831717645e+00   6.171286425092895e+00 -1.57383292e+00   3.80315225e+00  -7.47336650e-01
C     2.644455408424838e+00   8.774218906877943e-01   6.168532622169907e+00  2.83146633e+00   5.52266570e-01   3.19045419e+00
C     3.491731331791927e+00   5.812215972088240e-02   3.550911366967117e+00  1.17310615e+00  -3.02762359e+00   4.26933221e+00
C     5.302301450128552e+00   1.683695934793140e+00   3.517750433276365e+00  2.11053099e+00   4.78564045e+00   1.51465099e+00
C     3.563964563424223e+00   1.787052115351035e+00   5.303361955699231e+00  9.39923640e-01   1.46546410e+00   1.40968224e+00
C     5.288954036059205e+00   7.023404037274919e+00   5.393145385190724e+00 -3.41231790e-01   9.44488790e-01  -9.87375830e-01
C     4.548262014709075e+00   9.147160877951720e-01   4.512219397572400e+00 -5.44879627e+00  -1.64166532e+00  -1.06231089e+00
C     6.177568067077963e+00   2.743518386057158e+00   4.271607821992545e+00  3.13768643e+00  -2.64941963e+00   2.73998545e+00
C     4.477968813778229e+00   2.773460768154026e+00   6.217771386142576e+00  5.45760540e-01  -5.42275463e+00  -9.98974800e-01
C     6.106076599346063e+00   8.139905211962601e-01   6.267426774765003e+00  3.29319723e+00   2.13233866e+00  -2.09404561e+00
C     4.243244931401840e-02   3.645690524791720e+00   3.444689781251100e+00 -4.46823630e-01  -2.39768454e+00   1.89496971e+00
C     1.728260057882444e+00   5.286614654174963e+00   3.598354969891331e+00  4.59533290e-01   6.62510210e-01  -8.90111930e-01
C     7.092175893596632e+00   5.215868291302092e+00   5.351312104819345e+00 -7.61875970e-01   4.33549247e+00  -1.33678014e+00
C     1.762540639220072e+00   3.532757521859030e+00   5.241556566797795e+00  2.09095256e+00  -1.47872893e+00   5.54485430e+00
C     8.973225595705202e-01   4.387855695645619e+00   4.499198757690894e+00 -2.16050177e+00   1.53603194e+00  -3.43421977e+00
C     2.535066238505122e+00   6.096492881801327e+00   4.511334825461568e+00  3.90724330e+00   4.18498439e+00   1.48218030e-01
C     8.262775718633826e-01   6.203581055318948e+00   6.262190426326205e+00  1.65806357e+00  -2.63934480e-01  -1.58159309e+00
C     2.687178734392467e+00   4.409862661234877e+00   6.308756636646432e+00 -9.35104300e-01  -7.63395180e-01  -4.03428692e+00
C     3.560169021166275e+00   3.597876644133231e+00   3.500050460952565e+00  9.02271500e-01  -3.42340905e+00   2.43073749e+00
C     5.190536361032329e+00   5.329108449176193e+00   3.562936116839562e+00  1.93196272e+00  -1.68420358e+00  -9.97206130e-01
C     3.520982988462810e+00   5.301002172642069e+00   5.350701420232062e+00  5.39462310e-01  -1.38893168e+00   1.20244077e+00
C     5.397252205275203e+00   3.592924774767686e+00   5.263298174970649e+00 -3.12224044e+00  -1.83285819e+00   5.17897230e-01
C     4.423700556465005e+00   4.381392362378384e+00   4.431758308925906e+00 -8.06993350e-01   1.88844385e+00   4.05906230e-01
C     5.976838225523391e+00   6.097493321200866e+00   4.417676808052591e+00  8.15487703e+00   3.43446679e+00   2.72679301e+00
C     4.433463406259765e+00   6.152254121117429e+00   6.301063119760580e+00 -5.71829280e-01   1.43468013e+00  -1.89211377e+00
C     6.199453620808872e+00   4.421742967959684e+00   6.181523122339505e+00  1.84093660e+00   1.59434600e-02   1.00343585e+00
