64
Lattice="7.10842262195238 0 0 0 7.10842262195238 0 0 0 7.10842262195238 " PBC="1 1 1" Properties=species:S:1:pos:R:3:force:R:3 Energy="-511.18600898"
C     1.599764727476240e-02   1.362791242593300e-02   4.048339091584060e-02 -1.48812511e+00  -1.03646870e+00  -2.78565443e+00
C     1.702349146590282e+00   1.737560007196190e+00   7.091728205140026e+00  3.48110799e+00   1.57820380e-01   1.36750544e+00
C     3.026766351596000e-04   1.784167801788744e+00   1.751718634454932e+00  3.63634640e-01  -6.18441450e-01   3.82359470e-01
C     1.824169241650949e+00   7.070621450191363e+00   1.755995061503124e+00 -4.42924300e-01   8.68057760e-01  -1.20351900e-02
C     9.036068316719573e-01   7.985560742456803e-01   8.866464196375422e-01 -5.05782900e-01   3.32932257e+00   6.58811080e-01
C     2.675245256666463e+00   2.625407963509190e+00   8.919002547959841e-01 -1.46042308e+00   1.80200525e+00  -6.68279470e-01
C     9.107967168151827e-01   2.680680996359751e+00   2.626240004376861e+00 -1.15978844e+00  -5.50512180e-01   9.54949800e-01
C     2.701760597134004e+00   8.818139006877876e-01   2.604983474963597e+00 -1.97249464e+00  -3.66523200e-02   1.81826097e+00
C     3.615158214701618e+00   6.879865507499140e-02   7.077751482416129e+00 -2.24298157e+00  -1.45291659e+00   1.84762756e+00
C     5.318039711061911e+00   1.838415871181726e+00   7.100920675103757e+00  1.36992195e+00  -2.59016123e+00   1.25662891e+00
C     3.557291105184341e+00   1.794163878929666e+00   1.738823173895764e+00  5.72594280e-01  -1.19235593e+00   1.94417855e+00
C     5.346675067491641e+00   7.093686006898025e+00   1.740583432589154e+00 -1.24697576e+00   1.10247788e+00   1.25345037e+00
C     4.457957893260667e+00   8.938099325328471e-01   8.929048170806425e-01  2.89887650e-01   1.12026077e+00  -5.12986610e-01
C     6.220395957942332e+00   2.693187981622736e+00   9.077078939341139e-01  5.04864290e-01  -9.10432030e-01  -1.59268199e+00
C     4.446779756522265e+00   2.658879535268437e+00   2.677448867678663e+00 -2.67621480e-01   3.69299600e-02  -8.48768700e-02
C     6.202975417711724e+00   8.812199208936603e-01   2.625221083078511e+00  1.31011641e+00   2.75788360e-01   2.47434910e-01
C     1.077189038566940e-02   3.565083997818421e+00   1.201046194297820e-02 -1.12666480e-01  -1.65451700e-01  -6.84060340e-01
C     1.790730652972659e+00   5.320303032824119e+00   7.105802668674946e+00 -1.46438010e-01   4.48083070e-01   7.32155600e-02
C     6.596992937758860e-02   5.317292189339192e+00   1.791791371796015e+00 -1.94212655e+00   2.56937990e-01  -2.01751630e-01
C     1.779867988030132e+00   3.604713382840695e+00   1.758394936063862e+00  1.06671772e+00  -3.32692949e+00   1.31593264e+00
C     9.294353563459535e-01   4.391277334873756e+00   8.946751697341535e-01 -1.28967497e+00   3.10104204e+00  -8.66986690e-01
C     2.696537470361280e+00   6.240550326428366e+00   8.289783459536253e-01  1.70130720e-01  -6.88460800e-01   2.00541082e+00
C     9.350941583410570e-01   6.235138897540438e+00   2.694327746105627e+00  1.68019320e-01  -1.38043953e+00  -1.27569683e+00
C     2.614128673916905e+00   4.451200626718094e+00   2.697977778952545e+00  2.88094476e+00   3.38638730e-01  -1.47356542e+00
C     3.576788513251834e+00   3.521808560665897e+00   3.086299391038500e-02 -1.73474477e+00   9.80140870e-01  -1.21613943e+00
C     5.317715709158892e+00   5.259963613919607e+00   2.585589210108320e-02 -6.56300230e-01   2.90698885e+00  -8.97119700e-02
C     3.571262852012404e+00   5.337177432944832e+00   1.809162224152509e+00 -8.28653140e-01  -1.64322910e-01  -1.12321851e+00
C     5.341581029673696e+00   3.522296696047212e+00   1.778116046191207e+00 -5.91809340e-01   8.26318610e-01   1.30907094e+00
C     4.402020649400494e+00   4.391103320688019e+00   9.218338935330305e-01  2.05593399e+00   1.01672198e+00   4.28800640e-01
C     6.181766017140430e+00   6.270801711656526e+00   8.390817602761100e-01  2.00409819e+00  -3.54249402e+00   2.04047103e+00
C     4.457199993240923e+00   6.235399634482140e+00   2.697110977898262e+00 -7.37889190e-01  -6.96488150e-01  -2.03945348e+00
C     6.221283160169534e+00   4.393216512564493e+00   2.692134371221999e+00  6.85853000e-02   2.50670353e+00  -1.65040870e+00
C     2.136884249066060e-02   1.271917167819220e-02   3.472053227621433e+00 -1.42254012e+00  -2.18147900e-02   2.99548480e+00
C     1.748123407546415e+00   1.771926955868651e+00   3.556114163651148e+00  1.08970909e+00   1.02249913e+00  -1.51328648e+00
C     7.044179824066393e+00   1.837381169185159e+00   5.320599880552731e+00  2.28844236e+00  -1.82882120e+00   3.43354780e-01
C     1.823236616603204e+00   1.032427301328800e-02   5.296050232192299e+00 -1.94463468e+00   3.79195700e-01   2.29978338e+00
C     8.287483884818684e-01   9.326536236029324e-01   4.449314051354746e+00  1.75916143e+00  -1.45445192e+00  -1.03016685e+00
C     2.657557795166474e+00   2.707431625616013e+00   4.386735194988029e+00 -5.86568580e-01  -2.03963268e+00   3.31704164e+00
C     9.248662044542699e-01   2.633844310558833e+00   6.224224483281239e+00 -3.18645610e+00   1.13993543e+00   1.22643580e-01
C     2.703282297164267e+00   9.646415253929325e-01   6.239955991213107e+00 -1.92193294e+00  -2.89256866e+00  -1.16170400e+00
C     3.507227124429717e+00   7.103302423186814e+00   3.542690405122861e+00  2.43278860e+00   1.75312280e-01  -1.07171920e-01
C     5.349518934129224e+00   1.743592427884200e+00   3.555025508726894e+00 -1.49957913e+00   7.74283170e-01  -1.66306620e-01
C     3.536777903524450e+00   1.776794519341923e+00   5.363768833534407e+00  8.69767110e-01   1.58320235e+00  -2.22356128e+00
C     5.295332992349940e+00   7.079237284912161e+00   5.345962092702854e+00  7.18148750e-01   3.02942660e-01  -3.86138620e-01
C     4.377690935635925e+00   8.475073025233698e-01   4.425151669858653e+00  2.02316328e+00   1.46111789e+00   1.51495412e+00
C     6.240473839800974e+00   2.719166067508657e+00   4.413654862534194e+00 -1.58889655e+00  -2.37631919e+00   9.79468780e-01
C     4.451519226219923e+00   2.655736475122778e+00   6.256176842958138e+00 -4.32825500e-01   8.56864490e-01  -2.00391306e+00
C     6.203633231140979e+00   9.210602838992958e-01   6.215029951874946e+00 -1.46369100e-02  -6.97853400e-02  -6.46265400e-02
C     7.101171815674921e+00   3.557591507124262e+00   3.549010290421625e+00  1.50562687e+00   2.95994700e-02   1.43493360e-01
C     1.836180556604641e+00   5.320796926027757e+00   3.566442986054912e+00 -2.49868352e+00   9.29035350e-01   1.92855614e+00
C     7.075593578561375e+00   5.334715075349265e+00   5.296304145048285e+00  7.99005330e-01   2.66562260e-01   1.41663903e+00
C     1.759521123459549e+00   3.526830590162701e+00   5.370691370902894e+00  1.33101940e+00   1.12353008e+00  -1.25059135e+00
C     9.099720687070364e-01   4.419830375769546e+00   4.497085707982873e+00 -1.22768184e+00   8.88431450e-01  -1.78801801e+00
C     2.730960504488213e+00   6.216567645856105e+00   4.482840073631261e+00 -2.90130480e+00   4.30088280e-01  -2.17160906e+00
C     8.808606612144455e-01   6.199058819016557e+00   6.268361532339532e+00  5.35412600e-02   1.05148236e+00  -2.41225922e+00
C     2.654992152190237e+00   4.494388488103940e+00   6.208228186606774e+00  9.88333200e-02  -3.17272648e+00   9.48221490e-01
C     3.525197927655339e+00   3.590498101453671e+00   3.595344197490630e+00  9.68681890e-01  -1.11075509e+00  -2.04857639e+00
C     5.312420005391218e+00   5.334509357598642e+00   3.523335378760446e+00  3.82920700e-01  -1.14726536e+00   1.58434590e+00
C     3.519114326324464e+00   5.329585637586672e+00   5.343039891247999e+00  2.57426274e+00   4.71753110e-01   1.20829403e+00
C     5.336791943186150e+00   3.523642391533405e+00   5.333766740687530e+00 -8.98758060e-01   1.80312522e+00  -2.69101740e-01
C     4.426175993558194e+00   4.436083144332141e+00   4.469488963182152e+00 -2.16508000e-03   4.64796800e-01  -3.71756960e-01
C     6.176329424436428e+00   6.191256258927714e+00   4.409176840620500e+00  1.60388899e+00   1.39468319e+00   2.70428210e-01
C     4.434270638732493e+00   6.221762196769896e+00   6.314874784911240e+00  5.11690890e-01  -9.14017220e-01  -3.67312168e+00
C     6.176355583431670e+00   4.483162653849758e+00   6.189851705702228e+00  1.67259666e+00  -2.24911903e+00   9.68317860e-01
