64
Lattice="7.10842262195238 0 0 0 7.10842262195238 0 0 0 7.10842262195238 " PBC="1 1 1" Properties=species:S:1:pos:R:3:force:R:3 Energy="-510.76906723"
C     7.074117514604332e+00   7.105966233479433e+00   7.086352744870555e+00  2.76354300e-02   2.12043290e-01   1.56221142e+00
C     1.748453664861340e+00   1.728325668623226e+00   7.062446053336102e+00  1.01156355e+00   2.11761596e+00   2.33342579e+00
C     3.231396513557939e-02   1.759220934772306e+00   1.726624623090260e+00 -7.00764760e-01   1.38451954e+00   2.55813814e+00
C     1.809688602847520e+00   1.919075071566640e-02   1.774222265532649e+00 -8.80940540e-01   2.57061270e-01  -2.17797800e-01
C     9.047905972908659e-01   9.223203228929169e-01   9.210325610510778e-01 -3.76288580e-01  -2.67800096e+00  -2.81556236e+00
C     2.653781161312694e+00   2.650065020135411e+00   8.857601415052806e-01  7.06404500e-01  -3.55623520e-01  -7.01661770e-01
C     9.237570061886451e-01   2.661130275122608e+00   2.671225870180210e+00 -1.21044029e+00   9.18179430e-01  -7.52242710e-01
C     2.624957360599308e+00   9.499624905141800e-01   2.653895393664198e+00  1.91606999e+00  -2.50300822e+00   2.10022206e+00
C     3.606149568546839e+00   3.688574714363240e-02   1.819606913844980e-02 -1.62646138e+00  -4.87263330e-01  -3.32579340e-01
C     5.336796919081984e+00   1.816661325679704e+00   3.037990550912980e-02 -9.81684500e-02  -4.16927970e-01  -8.63410810e-01
C     3.531568922512740e+00   1.787360194387386e+00   1.835361808487269e+00  1.02606023e+00   9.61867530e-01  -2.10292572e+00
C     5.291334931131548e+00   4.906617147145480e-02   1.835643657444152e+00  8.03581420e-01  -2.33846140e-01  -3.21470859e+00
C     4.428817980993370e+00   9.396120585056504e-01   9.133933525140424e-01  3.32270400e-02  -4.45338570e-01   6.13699500e-01
C     6.281945230376769e+00   2.667558137360969e+00   9.076809530123842e-01 -8.50634220e-01   8.75358320e-01  -1.57968416e+00
C     4.500124487568697e+00   2.674138759601434e+00   2.668654042876294e+00 -1.43440312e+00   5.38924900e-02   2.03371500e-01
C     6.193255929294946e+00   9.117303370420933e-01   2.603634367434547e+00  2.29914572e+00  -5.14531960e-01   2.45475821e+00
C     4.042844280898800e-02   3.560963813899416e+00   7.101284057668091e+00 -1.64891053e+00  -2.66828320e-01   1.32999810e-01
C     1.777967977748032e+00   5.281728608802880e+00   7.064893696496847e+00  3.65818460e-01   2.55024631e+00   6.18553580e-01
C     4.072493511646820e-02   5.390844815293987e+00   1.735534035665264e+00 -1.02142218e+00   1.07462540e-01   8.02148740e-01
C     1.814084664648407e+00   3.543382623317597e+00   1.770312277670518e+00 -9.73970840e-01   5.17995520e-01  -4.74347430e-01
C     9.081841582496540e-01   4.482413141768705e+00   8.398525976250227e-01 -2.08477720e-01  -1.64489157e+00   1.84859168e+00
C     2.652963052953358e+00   6.272843108464538e+00   8.123561526674697e-01  6.83468970e-01  -1.61191992e+00   2.44877316e+00
C     9.482959919151472e-01   6.223152888571273e+00   2.667229443899020e+00 -1.77149771e+00  -2.54196760e-01  -4.69606480e-01
C     2.660470471335019e+00   4.420276642541630e+00   2.671503454083521e+00  3.55934300e-02   1.92702431e+00   3.04392960e-01
C     3.574170765537793e+00   3.490242259421489e+00   7.090039030672834e+00 -5.04326640e-01   1.90546671e+00   1.23069400e+00
C     5.304299130137451e+00   5.286575842187458e+00   2.376175079723120e-02  5.29964940e-01   7.91541540e-01   8.30955500e-01
C     3.518093627920458e+00   5.390443900258219e+00   1.791101854801875e+00  7.28631600e-01  -1.86249037e+00  -8.95189450e-01
C     5.404475642173194e+00   3.574768086290552e+00   1.742229956520625e+00 -8.89369880e-01  -6.90455660e-01   2.66497955e+00
C     4.443241254826254e+00   4.380619321418459e+00   9.673805427968708e-01 -5.27787490e-01   2.23396014e+00  -3.43554615e+00
C     6.162179185116378e+00   6.283638669897531e+00   9.186862839968944e-01  1.89116367e+00  -1.80274533e+00  -1.19802785e+00
C     4.455619222218687e+00   6.261540076740702e+00   2.628892512277515e+00 -2.65856056e+00  -1.17986288e+00   2.83723881e+00
C     6.248126056751405e+00   4.544802629756825e+00   2.662452228477249e+00  3.34734670e-01  -2.50515277e+00  -2.16088949e+00
C     7.087086405169165e+00   7.051170460123579e+00   3.520391283363921e+00  1.87546300e-01   1.35624462e+00   5.60888500e-01
C     1.758390031252254e+00   1.752458621249674e+00   3.581245067729217e+00 -2.73810860e-01   7.74272180e-01   3.82519000e-02
C     7.076136022291507e+00   1.724904313731994e+00   5.337876546309509e+00 -5.40782200e-02   1.72326786e+00  -1.48634321e+00
C     1.766005781994644e+00   4.689497486640199e-03   5.374071496942930e+00  8.63466630e-01  -1.62784091e+00  -6.55098010e-01
C     8.772564066092007e-01   7.975313951250074e-01   4.447872107826280e+00 -6.77810370e-01   2.43272452e+00   3.52025860e-01
C     2.629987991287483e+00   2.688244286943204e+00   4.470619273462958e+00  1.72889706e+00  -1.42820611e+00  -1.02935775e+00
C     8.186092898778314e-01   2.662198813210846e+00   6.211543910337872e+00  2.56913455e+00  -1.86689469e+00  -3.24102880e-01
C     2.719823241179876e+00   9.051446678215682e-01   6.254083767917679e+00 -1.34686559e+00   3.74270210e-01  -1.65722891e+00
C     3.550973352412364e+00   5.702163373085400e-03   3.620772517971120e+00 -1.07234312e+00  -3.09018590e-01  -1.74776713e+00
C     5.404892551159858e+00   1.801265619632404e+00   3.528777160612961e+00 -1.78569730e+00  -7.14956390e-01   1.21880900e-01
C     3.621903681262641e+00   1.868946333081948e+00   5.334148747319129e+00 -2.88198271e+00  -3.91070625e+00  -5.31222800e-01
C     5.281680840202873e+00   7.051548343870058e+00   5.376651143511729e+00  8.76118690e-01   1.41226521e+00  -1.24833948e+00
C     4.418037205079425e+00   8.504258786826894e-01   4.489301629792842e+00  1.44319284e+00   2.02621807e+00  -7.87904500e-01
C     6.267835793402558e+00   2.725400438483302e+00   4.346401152031435e+00 -4.10812640e-01  -2.20741423e+00   1.93828258e+00
C     4.490669930062966e+00   2.698008060832906e+00   6.151586995654542e+00 -5.46646030e-01  -9.87870100e-01   2.99515434e+00
C     6.142761888971812e+00   8.971995127749680e-01   6.238912474772492e+00  2.03404211e+00  -9.39657730e-01  -6.64842540e-01
C     3.902289440433540e-02   3.671439221879694e+00   3.484913785825537e+00 -3.00119020e-01  -3.40140075e+00   1.78260579e+00
C     1.736338069347812e+00   5.310564138413588e+00   3.607493415843150e+00  2.41002843e+00   6.40173290e-01  -1.20724352e+00
C     7.083124881243039e+00   5.322853392691723e+00   5.358095459272933e+00 -1.63390910e-01  -8.71349380e-01  -1.84198596e+00
C     1.752940785555989e+00   3.504329660285578e+00   5.344910970250035e+00 -2.25568960e-01   1.49357932e+00  -1.96700340e-01
C     9.047764515298522e-01   4.433475348409767e+00   4.458624947639327e+00 -1.34877280e+00   4.89695070e-01   1.56056890e-01
C     2.628855193058760e+00   6.189370820911986e+00   4.505142109843476e+00  1.58909885e+00   1.95897940e-01  -8.73036210e-01
C     8.621539229949750e-01   6.161687779860657e+00   6.209222015173276e+00  6.54555500e-02   2.31877145e+00   8.29258620e-01
C     2.658603159796971e+00   4.411070453322242e+00   6.228255811917493e+00  6.30216880e-01  -1.32936300e+00   3.60091400e-02
C     3.547966560728330e+00   3.568198197768243e+00   3.554856825858122e+00  6.36888800e-02  -9.42184580e-01  -4.16363310e-01
C     5.271162507252059e+00   5.279286012622196e+00   3.502818125299662e+00  1.76459894e+00   2.99609115e+00   1.11265530e+00
C     3.563116599689883e+00   5.254930566367742e+00   5.380618354175950e+00 -4.55027540e-01   2.27249534e+00  -1.27253932e+00
C     5.331068809966336e+00   3.496078771982092e+00   5.261965772234756e+00  2.00094648e+00   2.92991138e+00   4.34905470e-01
C     4.452006011000941e+00   4.409885052766131e+00   4.402579655755330e+00 -1.13953569e+00   3.88024150e-01   1.35020227e+00
C     6.168014844666266e+00   6.187586322497460e+00   4.414442973350075e+00  4.62986540e-01  -9.70540900e-02   1.02285682e+00
C     4.441299944608732e+00   6.205759857936204e+00   6.281914877412182e+00 -3.30994910e-01  -1.49992184e+00  -1.15092164e+00
C     6.221844583388062e+00   4.402316430865712e+00   6.215822185575946e+00 -7.05591910e-01   9.10330090e-01   6.06599600e-02
