64
Lattice="7.10842262195238 0 0 0 7.10842262195238 0 0 0 7.10842262195238 " PBC="1 1 1" Properties=species:S:1:pos:R:3:force:R:3 Energy="-512.90953311"
C     1.846007595455660e-02   7.100135691993829e+00   7.098052568745040e+00  1.52778600e-01   7.33941690e-01  -7.38152800e-02
C     1.767820633373756e+00   1.810630184507765e+00   1.710130097074360e-02 -3.70099250e-01  -2.08552529e+00  -7.44868220e-01
C     7.107929721975529e+00   1.781901565573262e+00   1.798592355137700e+00 -1.33908458e+00   1.70739220e-01  -9.78945260e-01
C     1.750429379844343e+00   7.087934368903505e+00   1.806391503183686e+00  9.79166680e-01   8.07460190e-01  -8.85422220e-01
C     8.702470043162974e-01   8.985317733424084e-01   8.933784512798132e-01  6.12383240e-01  -1.95970210e-01   5.55245430e-01
C     2.674959853498270e+00   2.646466523352488e+00   8.676458903111870e-01 -2.91902050e-01   1.53935872e+00   2.43146550e-01
C     8.563922621245602e-01   2.661540288939329e+00   2.664610274500455e+00  1.58039990e+00  -3.14406220e-01   5.06645980e-01
C     2.715590815267702e+00   9.448754189504031e-01   2.675110694226266e+00 -1.92636787e+00  -2.33863474e+00  -2.26530090e-01
C     3.530916724737355e+00   7.083885553547605e+00   7.061709336415765e+00  3.15451130e-01   7.25986500e-01   1.42723252e+00
C     5.366513750929121e+00   1.733238086243230e+00   7.039321003952944e+00 -1.77442517e+00   1.15648488e+00   2.51737181e+00
C     3.567232945060673e+00   1.796957204682422e+00   1.719558708837528e+00 -3.04750070e-01  -6.70130130e-01   1.85355987e+00
C     5.351580661025929e+00   7.102465264254856e+00   1.795101124452113e+00 -2.12254380e-01   9.48827540e-01  -1.42442471e+00
C     4.420390377303550e+00   8.819171149842300e-01   8.737704361563529e-01  1.22860416e+00  -5.27464110e-01  -8.71115060e-01
C     6.172565443574912e+00   2.666303500768539e+00   8.923411191668765e-01  1.10107283e+00  -6.20616220e-01  -7.45938320e-01
C     4.411209351900236e+00   2.679091837398824e+00   2.654081421084163e+00  8.93557520e-01  -9.09909800e-02  -4.47826300e-02
C     6.206422647261293e+00   9.021895543699817e-01   2.683401460780651e+00  1.92973730e-01   3.97920310e-01  -6.33645110e-01
C     7.057378956439887e+00   3.546035628807833e+00   3.307122539728800e-03  1.70958826e+00  -1.19436990e-01   8.20957230e-01
C     1.749470524717131e+00   5.308446112809733e+00   2.580492471089780e-02  6.54366370e-01   1.57938354e+00  -7.01738100e-01
C     7.091574449958755e+00   5.303733655118030e+00   1.809289536001633e+00  4.65273900e-02   8.35428000e-03  -6.54965090e-01
C     1.817565161615837e+00   3.531639082643999e+00   1.770250931983308e+00 -1.74071778e+00   1.82179510e-01   6.12258760e-01
C     8.896925208986645e-01   4.444180348538582e+00   9.261005820422331e-01 -5.06407600e-01  -1.07998770e+00  -1.07835613e+00
C     2.644488391505794e+00   6.215783231419988e+00   8.944538134537668e-01  4.70011530e-01  -3.10231100e-01   1.68326530e-01
C     8.451540592150187e-01   6.169753067249535e+00   2.674068883807079e+00  1.48203665e+00   1.74880674e+00   3.07840410e-01
C     2.679647218458124e+00   4.411309722827631e+00   2.663883296119107e+00  4.14676620e-01   8.31541370e-01   3.49581430e-01
C     3.536424330583331e+00   3.576217849083900e+00   7.104613074149489e+00  4.21123960e-01  -2.76746010e-01  -6.10471220e-01
C     5.376883375678724e+00   5.371598832134564e+00   7.100535114260848e+00 -1.32150287e+00   1.40422700e-02  -4.49653840e-01
C     3.567074142899342e+00   5.320493822887240e+00   1.786864879499224e+00 -1.53341410e-01   1.04770943e+00  -7.77622190e-01
C     5.283166500530454e+00   3.570707897458460e+00   1.737332395503897e+00  6.89592010e-01  -6.39517250e-01   1.27642507e+00
C     4.426814329909471e+00   4.496120597443756e+00   8.307789804874975e-01  5.47381730e-01  -1.01623268e+00   1.81605145e+00
C     6.259921986499711e+00   6.257723848972929e+00   8.621276218312810e-01 -1.05389306e+00  -1.70330047e+00   1.80601639e+00
C     4.506086250535865e+00   6.223503973564474e+00   2.652784986966727e+00 -2.22111825e+00  -1.13255255e+00   9.85908740e-01
C     6.200077882483360e+00   4.374487311729542e+00   2.703739866328316e+00 -2.20522500e-01   2.19258102e+00  -1.29479971e+00
C     9.487042997104398e-03   6.228904597650019e-02   3.512399852486065e+00 -1.94094130e-01  -2.52362180e+00   1.88615557e+00
C     1.775868434042989e+00   1.782603664475439e+00   3.583708065082821e+00  1.17458473e+00   1.61694754e+00  -1.78437217e+00
C     5.065774729607280e-02   1.768298888047630e+00   5.317719263370202e+00 -2.01043531e+00  -1.13720400e-01   4.12505910e-01
C     1.758406736045411e+00   1.112773802202660e-02   5.273191819741617e+00 -1.86265390e-01  -4.70152210e-01   1.62484754e+00
C     9.143240582876790e-01   9.354433951443775e-01   4.414111720855983e+00 -8.10626590e-01  -1.83099715e+00  -9.63324000e-03
C     2.662157442191198e+00   2.692023977418711e+00   4.471971224361056e+00  5.34716800e-01  -9.65032160e-01  -9.52442570e-01
C     8.694503633932740e-01   2.627341241209152e+00   6.226856874345877e+00  5.83108090e-01   2.24093772e+00   4.05787170e-01
C     2.602681625550789e+00   8.713236460063225e-01   6.208409664636262e+00  2.13860644e+00   3.72772960e-01  -5.15203780e-01
C     3.565709183587850e+00   7.092434426927322e+00   3.557004209247398e+00  7.05315600e-01   6.85576930e-01  -6.41128870e-01
C     5.297276008588891e+00   1.769778292963304e+00   3.594438157943484e+00  1.42571441e+00   1.63799140e+00  -2.25505923e+00
C     3.538712460740483e+00   1.738503223793638e+00   5.302978953888466e+00  2.32360600e-01   1.80302283e+00   1.33032987e+00
C     5.384772374186626e+00   4.907057869347920e-02   5.325136618037267e+00 -1.28508739e+00  -2.29757573e+00  -1.12211903e+00
C     4.489919991476556e+00   9.084871192217183e-01   4.423832275536154e+00 -2.60723008e+00  -1.64520564e+00   1.52316515e+00
C     6.190862665567244e+00   2.667196745154968e+00   4.480580306080364e+00  7.29109090e-01  -4.80941400e-01  -8.24879500e-02
C     4.422403980179118e+00   2.673864800993659e+00   6.231381243175054e+00  5.73601320e-01  -8.98489190e-01  -6.97510070e-01
C     6.249558972583144e+00   8.319623196010490e-01   6.190249990621627e+00  8.29712860e-01   2.70953307e+00   7.22473400e-01
C     7.072857973200295e+00   3.504909849739823e+00   3.573375333046616e+00  7.73036090e-01   7.67334410e-01  -4.30436600e-02
C     1.771440100003407e+00   5.280769895844121e+00   3.551691871770793e+00 -5.06187280e-01   5.09755210e-01   6.67641300e-02
C     3.651355013524920e-02   5.300027678985093e+00   5.333490578468743e+00 -1.09810941e+00   1.42858914e+00   7.92810000e-02
C     1.786935323967388e+00   3.559977378092440e+00   5.345622736606976e+00 -3.80055010e-01  -5.11705880e-01   4.32376100e-01
C     8.969297481365389e-01   4.391977798838731e+00   4.463907429740928e+00 -5.32336260e-01   7.80863980e-01  -8.41135550e-01
C     2.627681237063066e+00   6.192226771868023e+00   4.436304642780979e+00  1.46490619e+00   1.07058162e+00  -6.90174350e-01
C     8.890623592334015e-01   6.251694982496228e+00   6.202997382737620e+00  3.09216750e-01  -1.91396207e+00   2.21256840e-01
C     2.652960138500084e+00   4.477649858855269e+00   6.220369585694412e+00 -7.86070000e-04  -8.90607400e-01   5.47554230e-01
C     3.581509998640264e+00   3.567153970485365e+00   3.570910985092714e+00 -9.06690470e-01  -4.45093710e-01   2.33235770e-01
C     5.346442693156193e+00   5.324239108597266e+00   3.582994308367547e+00  1.94454660e-01   1.26357070e-01  -2.39914010e-01
C     3.542781392932397e+00   5.370115873007579e+00   5.337623059958880e+00  7.95549850e-01  -9.83500800e-01  -1.83171920e-01
C     5.335618840201171e+00   3.581002528349423e+00   5.394939479975785e+00 -5.51923150e-01  -7.82926070e-01  -1.33437068e+00
C     4.468965427856189e+00   4.451995561619690e+00   4.494048207913121e+00 -1.07434221e+00   3.75039310e-01  -1.22354524e+00
C     6.234685309093056e+00   6.237290403814834e+00   4.450856294726382e+00  8.97788900e-01  -3.21103340e-01  -7.01755920e-01
C     4.499959074574329e+00   6.249217057455122e+00   6.172146828566820e+00 -1.89186849e+00   6.46864700e-02   1.20554003e+00
C     6.222849927599209e+00   4.456149439461912e+00   6.246593551918759e+00  6.05098700e-01  -7.64145900e-02  -4.14295940e-01
