64
Lattice="7.10842262195238 0 0 0 7.10842262195238 0 0 0 7.10842262195238 " PBC="1 1 1" Properties=species:S:1:pos:R:3:force:R:3 Energy="-506.03616702"
C     7.726244063594680e-02   6.991047350519393e+00   7.067501918924576e+00 -1.64959348e+00   3.06524154e+00   2.25352003e+00
C     1.874945415267870e+00   1.821701339485737e+00   9.115542614137959e-02 -3.33436436e+00  -1.57226590e+00  -2.19054813e+00
C     7.106210692133335e+00   1.743154264713904e+00   1.719201510600873e+00  1.24446100e-02  -7.57807300e-02   2.22418660e+00
C     1.715522404305440e+00   7.101627749901768e+00   1.869232020587045e+00  1.51140613e+00  -5.00703140e-01  -6.69382100e-01
C     9.097089859858702e-01   8.565755883439300e-01   9.339187806608400e-01  3.42956920e-01  -1.29399370e-01  -1.90048516e+00
C     2.662661713691861e+00   2.718062200559997e+00   9.766766535624020e-01  1.06409228e+00  -1.18886208e+00  -1.36704721e+00
C     8.575862638720416e-01   2.635628737889131e+00   2.620579993949912e+00 -1.46876120e-01   2.51039943e+00  -6.69079560e-01
C     2.613907673057650e+00   8.901528623475359e-01   2.736673757000586e+00  2.44277088e+00  -2.24315000e-03  -2.35420397e+00
C     3.405998850183118e+00   7.063094767984403e+00   1.291512956455774e-01  4.70468623e+00   2.02288131e+00  -3.69766141e+00
C     5.403278797056664e+00   1.796840413298775e+00   7.051683332815612e+00 -3.35116031e+00  -1.52692905e+00   1.50058750e-01
C     3.592065508641381e+00   1.834118900792162e+00   1.877888870906360e+00 -2.33841629e+00  -1.73670937e+00  -3.20909157e+00
C     5.293762315287825e+00   8.591474156478460e-02   1.744555903486115e+00  1.15803226e+00  -1.81252268e+00   2.24252310e-01
C     4.393777224940758e+00   9.856371756960429e-01   8.825912067012845e-01  1.10092027e+00  -2.02781687e+00   3.79682570e-01
C     6.273867289995627e+00   2.605689838919346e+00   8.312839628304224e-01 -1.44343730e-01   3.03340227e+00   5.71943830e-01
C     4.472053682063448e+00   2.650617628909890e+00   2.683743233740220e+00  2.62552781e+00  -5.79025940e-01   4.54898560e-01
C     6.206118691110063e+00   9.098572676817233e-01   2.711697034609144e+00 -8.45074380e-01  -5.35098050e-01  -8.71481040e-01
C     4.069173878283280e-02   3.603066574572320e+00   7.046586238375941e+00  4.10285210e-01  -1.05891380e-01   2.16527308e+00
C     1.883917666298834e+00   5.381699260919548e+00   2.605841106152700e-02 -1.61853703e+00  -1.49641464e+00  -1.88910731e+00
C     6.989224822043851e+00   5.373737187827111e+00   1.701880559371171e+00  4.45880010e+00  -4.97309830e-01   2.48793793e+00
C     1.742992761351977e+00   3.585466049080973e+00   1.760564000142129e+00  5.07343350e-01   9.75102810e-01   4.80721000e-03
C     8.927141691859742e-01   4.620288035821998e+00   8.088411087661060e-01 -5.63858690e-01  -5.36319309e+00   2.40294441e+00
C     2.726471251266779e+00   6.135683890400625e+00   1.025049540575728e+00 -3.19611972e+00   2.36711821e+00  -2.02047245e+00
C     7.717488619453626e-01   6.238257789049189e+00   2.684319442477798e+00  3.53535490e-01   4.81576140e-01  -5.37081860e-01
C     2.743445595809529e+00   4.396356516088425e+00   2.621515817787836e+00 -3.12921882e+00   2.69867340e-01   1.34195434e+00
C     3.522040863917118e+00   3.554599500959278e+00   3.698903252430100e-02  1.96003588e+00  -1.54573283e+00  -2.37309060e-01
C     5.250268009802832e+00   5.383990021193068e+00   2.167727694814240e-02  2.38072452e+00  -2.24659029e+00  -4.66273470e-01
C     3.631001111615943e+00   5.242600580827994e+00   1.772611781303862e+00 -1.18148931e+00   1.54957461e+00   1.56608053e+00
C     5.422533025986327e+00   3.513750737120769e+00   1.769261937144187e+00 -2.15662682e+00   6.91530370e-01  -1.67728490e-01
C     4.479642776221012e+00   4.419540494295103e+00   9.212925160662910e-01  1.82860050e-01  -1.16650249e+00  -2.26356820e+00
C     6.202739275912288e+00   6.192551413529078e+00   8.655753489704334e-01 -1.97010281e+00   3.68002403e+00  -1.28300168e+00
C     4.451950707472958e+00   6.214187177289119e+00   2.579113081680369e+00  4.77533370e-01   1.41380761e+00   2.71156482e+00
C     6.223908798232684e+00   4.509775308622967e+00   2.617493019258725e+00  3.06929640e-01  -3.32107197e+00   1.36441464e+00
C     7.025511115907939e+00   5.290557269696920e-02   3.674757504642936e+00  1.85075056e+00  -1.22212770e+00  -3.32623708e+00
C     1.755480340621210e+00   1.853345762294738e+00   3.458805402552991e+00  4.73945040e-01  -3.48172605e+00   3.09956006e+00
C     1.420124225234910e-01   1.711038624569422e+00   5.413780922803905e+00 -3.46719224e+00   1.21518002e+00  -1.50570740e+00
C     1.753885708174865e+00   7.091354799699796e+00   5.299063421456690e+00  2.82643396e+00   2.06501020e-01  -5.45886410e-01
C     9.632089649823238e-01   8.652863205067042e-01   4.404191064079058e+00 -2.70150387e+00   2.22328688e+00   1.71408260e+00
C     2.649489948745453e+00   2.650622818058402e+00   4.361529652472449e+00  2.25038040e-01   1.20555895e+00   4.33598560e-01
C     9.480135032002284e-01   2.736795453195840e+00   6.232469542678176e+00  8.09791240e-01  -2.21884225e+00  -7.96618330e-01
C     2.618959557929458e+00   8.132221007110382e-01   6.241951894116351e+00  2.15654580e-01   2.72908214e+00   3.83041530e-01
C     3.566923444339798e+00   7.072048394948102e+00   3.531351760201699e+00 -1.56503853e+00   6.13717670e-01   1.15496923e+00
C     5.314500853944771e+00   1.724683028535833e+00   3.620452070279411e+00  1.20814095e+00   2.08844662e+00  -4.59359870e-01
C     3.460322126687421e+00   1.771561156440626e+00   5.252111792462007e+00  1.94079934e+00  -1.19387783e+00   3.06235138e+00
C     5.242572715811325e+00   1.854089871974600e-03   5.367741873105177e+00  1.25215157e+00  -2.38794580e-01   1.97377399e+00
C     4.441907643658516e+00   9.096843908436050e-01   4.512674194451629e+00 -1.73901760e+00  -1.98999556e+00  -2.82738691e+00
C     6.215256070798489e+00   2.575336305658137e+00   4.544984178870541e+00  1.10662214e+00   2.56977810e+00  -1.63677551e+00
C     4.349836084009871e+00   2.670257205429782e+00   6.134375371964736e+00  2.30812183e+00   6.16379240e-01   2.67555605e+00
C     6.257261943671081e+00   7.790314409195526e-01   6.263984307858589e+00  2.89190270e-01   2.30330942e+00  -9.77632470e-01
C     2.071259291438220e-02   3.514057465556822e+00   3.545535053686933e+00 -2.19727220e+00   1.07451686e+00   3.09402650e-01
C     1.676350233026084e+00   5.350844939284759e+00   3.462187661119814e+00  2.78406367e+00  -1.15883743e+00   2.06646975e+00
C     1.230972653528020e-02   5.398530441830731e+00   5.374651828565628e+00 -4.06841750e-01  -2.46525904e+00  -1.28882350e+00
C     1.830012933718398e+00   3.586613774997198e+00   5.228391625937103e+00 -1.73011010e+00  -1.78565290e-01   2.71220254e+00
C     8.359690530950381e-01   4.485021577449114e+00   4.376880362204566e+00  1.65021920e+00  -1.33938370e+00   1.25708174e+00
C     2.618768696782110e+00   6.175630595408656e+00   4.398036307437757e+00  1.51851416e+00   1.94849970e-01   2.22015720e-01
C     9.964614551564217e-01   6.224571800810452e+00   6.174317527582289e+00 -2.09756186e+00  -9.18179730e-01   1.58590701e+00
C     2.709845930274670e+00   4.365853421615291e+00   6.242121216743159e+00 -5.26364130e-01   3.04697886e+00  -2.10357359e+00
C     3.639153619350368e+00   3.472962821379888e+00   3.516631283219072e+00 -2.63469190e+00   3.55145148e+00   5.47105200e-01
C     5.358951100103702e+00   5.402954297564062e+00   3.527029483827608e+00 -3.69010310e-01  -1.48294818e+00  -3.90654700e-01
C     3.609874239831267e+00   5.265205862349178e+00   5.276944569295394e+00 -3.50173495e+00   7.72942760e-01   4.01378120e-01
C     5.289987245287022e+00   3.613306754946013e+00   5.365486868197435e+00  1.90875574e+00  -1.72379001e+00  -1.86780994e+00
C     4.469474106578876e+00   4.455774043663350e+00   4.320245995338050e+00  7.93084840e-01  -5.17791390e-01   3.38620503e+00
C     6.164242902371416e+00   6.269301834483706e+00   4.543353577805739e+00  4.58507680e-01  -6.15000930e-01  -1.94654099e+00
C     4.324535359715409e+00   6.179540085681204e+00   6.226934782657792e+00  2.18787451e+00   1.41255681e+00   7.67961690e-01
C     6.265290267262335e+00   4.483477983477181e+00   6.281764249936864e+00 -3.25852308e+00   2.81593740e-01  -2.57533924e+00
