64
Lattice="7.10842262195238 0 0 0 7.10842262195238 0 0 0 7.10842262195238 " PBC="1 1 1" Properties=species:S:1:pos:R:3:force:R:3 Energy="-506.65597267"
C     7.105854489075846e+00   3.114654888869680e-02   1.277327388275302e-01 -1.62889304e+00  -1.39402180e+00  -5.15382395e+00
C     1.712896268652707e+00   1.746082152906855e+00   7.027225525275431e+00  2.66186057e+00   2.78112683e+00   1.65539535e+00
C     4.967188016290500e-02   1.767334417266548e+00   1.782989793992157e+00 -2.55216467e+00   1.75500380e-01  -9.40483000e-03
C     1.829840341217184e+00   7.066339478573528e+00   1.737514797628327e+00  6.71675900e-01   4.44759398e+00  -8.20674140e-01
C     9.047978478819384e-01   9.428961497560904e-01   8.412696616743197e-01  1.97695540e-01  -2.15436766e+00   2.21432705e+00
C     2.652012941185969e+00   2.702915929062432e+00   9.473804270816911e-01  8.98198180e-01  -1.75827857e+00  -2.65393144e+00
C     8.305222953466893e-01   2.653397164322762e+00   2.734001132263919e+00  1.35946374e+00   1.74134359e+00  -2.18730704e+00
C     2.687179018729371e+00   1.009083525781625e+00   2.609924255189854e+00 -3.06697309e+00  -5.58796870e+00   4.01947248e+00
C     3.632562689897104e+00   7.090154187119278e+00   6.055778964739920e-02 -3.40017366e+00   2.58815710e-01  -2.79226858e+00
C     5.356202983918810e+00   1.856520383836830e+00   7.077977317002766e+00 -4.86056640e-01  -5.07994856e+00   2.24358735e+00
C     3.549487692084784e+00   1.765986802506248e+00   1.779125442203247e+00  4.52202700e-02   2.20322117e+00  -3.62324380e-01
C     5.275958702162226e+00   7.057745182373270e+00   1.836480247702300e+00  2.22642437e+00   1.96388931e+00  -1.71067618e+00
C     4.356839159806642e+00   8.598008218550764e-01   9.357845283459114e-01  4.41470567e+00   1.12313600e+00  -1.69905900e-01
C     6.213094115142842e+00   2.673959556267183e+00   8.832414141183359e-01  1.68598858e+00   4.13156710e-01   5.78860000e-04
C     4.460533843449702e+00   2.666662760447754e+00   2.630516715761958e+00  5.32819370e-01   1.23641890e-01   7.83510200e-02
C     6.240709839431958e+00   8.357456353720916e-01   2.622740954426393e+00 -2.87554850e-01   1.37128988e+00   2.12702236e+00
C     5.733461757881260e-02   3.539130791411670e+00   4.691502061819040e-02 -1.72998694e+00   6.74871220e-01  -2.52487641e+00
C     1.726650711001276e+00   5.283610705859978e+00   1.585249328486200e-02  3.14409471e+00   1.66299609e+00  -1.30538219e+00
C     4.892428735595960e-02   5.407596168619149e+00   1.783474019741032e+00 -1.85649212e+00  -3.11725241e+00  -8.57678690e-01
C     1.748786623376861e+00   3.565710676356600e+00   1.747516348254667e+00  3.46580142e+00  -2.29098569e+00   4.56997759e+00
C     9.955241385497486e-01   4.367693650063156e+00   9.073873751581781e-01 -5.80854182e+00   3.50846756e+00  -1.38387032e+00
C     2.711309625576354e+00   6.226047082841005e+00   8.745454674746114e-01 -1.64180456e+00  -1.16208317e+00  -7.11849000e-02
C     9.919037478251563e-01   6.210625288882690e+00   2.535848591498680e+00 -1.90103050e+00   7.42544350e-01   5.41598478e+00
C     2.754472678567256e+00   4.436223464594659e+00   2.658990639913988e+00 -3.52757676e+00   6.18439400e-02  -2.43776700e-01
C     3.653157851669805e+00   3.516241101901460e+00   8.283068132687139e-02 -4.82432340e+00   1.07581109e+00  -3.34243337e+00
C     5.297694907933888e+00   5.249008752735699e+00   1.542030118956600e-03  3.65281132e+00   4.07289157e+00  -2.48068459e+00
C     3.537673209353439e+00   5.320134776460704e+00   1.751857888454058e+00  2.03853640e+00   6.78335330e-01   6.41856900e-01
C     5.330158718618297e+00   3.568794239004930e+00   1.688952186815273e+00  1.81850080e-01   1.30604895e+00   3.23765754e+00
C     4.452494217466482e+00   4.471985370122070e+00   8.256466993558575e-01 -2.56005890e-01  -2.25243513e+00   3.33644113e+00
C     6.216464431559663e+00   6.210609437100247e+00   9.161959903004298e-01 -1.35028570e-01  -2.76013300e-02  -6.23385800e-02
C     4.458294334903271e+00   6.236104647837592e+00   2.706550607716490e+00 -2.78345692e+00  -1.05998111e+00   5.08961750e-01
C     6.134392218926346e+00   4.595032378926948e+00   2.668924091851628e+00  4.38133867e+00  -5.51227997e+00  -1.80792122e+00
C     1.940059135140880e-02   7.050557714093735e+00   3.555817102669858e+00 -6.70121480e-01   4.05241440e-01  -1.38891295e+00
C     1.692551892030041e+00   1.745945386855646e+00   3.615864934078498e+00  2.04299570e+00   7.73722600e-01  -2.42252601e+00
C     7.071855827779327e+00   1.686244872976219e+00   5.304899578596163e+00  7.22648990e-01   1.92733609e+00   5.66315630e-01
C     1.806778698963797e+00   6.398504452940599e-03   5.357739895973480e+00 -6.02261490e-01  -1.14965604e+00  -4.19828900e-02
C     8.718508066278218e-01   7.803091798854976e-01   4.448765210044256e+00  3.92055580e-01   2.37213885e+00   3.02926870e-01
C     2.615131743432814e+00   2.645671801703572e+00   4.422024034990078e+00  8.17919220e-01   4.93254750e-01   4.99391910e-01
C     8.386599464778391e-01   2.693062731216171e+00   6.176709156372789e+00  1.23951012e+00  -2.35944066e+00   5.54509800e-02
C     2.675246749435213e+00   9.299852639198367e-01   6.224073144963658e+00  9.83187700e-02  -1.37055912e+00  -3.01919230e-01
C     3.537368684528398e+00   4.794332503439960e-02   3.637932605596931e+00 -7.04761990e-01  -1.44145980e+00  -4.72194657e+00
C     5.362217278129140e+00   1.846404387606308e+00   3.555818595438608e+00 -8.90847940e-01  -3.41423211e+00  -2.29295630e+00
C     3.566692918194232e+00   1.843346841784768e+00   5.321046929251303e+00 -2.21704170e+00  -2.75708764e+00   8.13541110e-01
C     5.267096134092288e+00   1.748721723478340e-02   5.346623673596098e+00  1.67841582e+00  -1.08593863e+00   3.79462180e-01
C     4.334351664848272e+00   8.807187770989503e-01   4.423572036184035e+00  5.46761647e+00   3.28790494e+00   2.80390936e+00
C     6.259214200859438e+00   2.656814183076196e+00   4.404262503726389e+00 -1.09875452e+00   2.23972090e-01   1.03888959e+00
C     4.439617878564162e+00   2.611778629398733e+00   6.262916480612613e+00  7.14411150e-01   2.56317973e+00  -1.83949159e+00
C     6.192696354266300e+00   8.426891425873075e-01   6.260407562848884e+00 -7.40793200e-02   2.17555450e+00  -6.37081060e-01
C     2.391969994784760e-02   3.674445800311049e+00   3.518801697897637e+00 -1.94239242e+00  -1.85260469e+00   1.36250435e+00
C     1.840956776847245e+00   5.411588472015219e+00   3.542882332533601e+00 -7.28248100e-02  -2.68710827e+00  -8.25251340e-01
C     4.288027993907840e-02   5.405333202278071e+00   5.330727676764802e+00 -2.51387459e+00  -2.77951060e+00  -3.42917290e-01
C     1.761835910201526e+00   3.536504726843163e+00   5.285099849314641e+00  1.53379920e-01   1.82904811e+00   1.51046370e+00
C     9.229280930269270e-01   4.521191435350686e+00   4.440629975776798e+00 -1.14844100e-02  -5.77821590e-01  -1.32125150e+00
C     2.697129530881300e+00   6.235795929043205e+00   4.458261636159219e+00 -1.47096720e+00   7.72624990e-01   3.19358700e-01
C     8.554882840199748e-01   6.205481278853727e+00   6.198202538427751e+00  2.22734851e+00   1.71278539e+00   3.85042727e+00
C     2.674782498353901e+00   4.468464141893026e+00   6.242442019856001e+00 -8.64658730e-01  -2.53213535e+00  -3.79416400e-01
C     3.542864134971694e+00   3.483984146315293e+00   3.512360258572071e+00 -3.81972070e-01   1.77398069e+00   5.89541320e-01
C     5.240489805815211e+00   5.254220932537588e+00   3.550200595789343e+00  9.39395290e-01   4.10976943e+00   2.25326353e+00
C     3.495818745882653e+00   5.316823388867403e+00   5.341087847312321e+00  2.33642812e+00   3.88027620e-01   3.15157040e-01
C     5.335276214230888e+00   3.435316828437047e+00   5.321159739918282e+00  2.53444820e-01   4.41149457e+00   1.21586900e-02
C     4.360293639947284e+00   4.411589510341954e+00   4.427189867876485e+00  1.66058009e+00  -1.79304080e+00   9.44030000e-01
C     6.219463617231493e+00   6.219609339895203e+00   4.504966105299405e+00 -1.24813282e+00  -3.41651900e-02  -2.76362093e+00
C     4.470264278837315e+00   6.211339329934868e+00   6.257049828340100e+00 -1.28459574e+00  -4.82423830e-01  -1.08083996e+00
C     6.244155078623194e+00   4.462158189102598e+00   6.155650525445265e+00 -3.76647180e-01  -1.88691396e+00   2.59602305e+00
