64
Lattice="7.10842262195238 0 0 0 7.10842262195238 0 0 0 7.10842262195238 " PBC="1 1 1" Properties=species:S:1:pos:R:3:force:R:3 Energy="-514.06393614"
C     8.089811446917200e-03   1.125455228156740e-02   7.071236542000673e+00  2.70521960e-01  -3.04329730e-01   9.12891610e-01
C     1.748738286103044e+00   1.782252721650690e+00   2.109559472514780e-02  4.13132620e-01  -1.14679330e-01  -9.87273070e-01
C     1.614372535960340e-02   1.752252334825242e+00   1.743989006782170e+00 -1.50839922e+00   1.26954006e+00   1.08034597e+00
C     1.785841550978849e+00   7.092522997873167e+00   1.797056082841066e+00 -1.34193300e-02   2.47647920e-01  -5.64729890e-01
C     8.751028388922456e-01   8.927354233696079e-01   9.171040202059085e-01  1.04155377e+00  -1.13438897e+00  -1.39614886e+00
C     2.649299869524594e+00   2.666355605506344e+00   8.511997015691025e-01  3.18659370e-01   3.39861180e-01   1.29629262e+00
C     8.611953522046680e-01   2.681904355892653e+00   2.646399988516765e+00  1.05612531e+00  -1.11836806e+00  -9.70435400e-02
C     2.696601872670217e+00   8.865286330747288e-01   2.638465851525226e+00 -1.04560998e+00  -1.83399490e-01   8.31521660e-01
C     3.575419999729032e+00   4.886052480505820e-02   7.074727701602033e+00 -7.35115180e-01  -9.56224500e-01   1.24120300e+00
C     5.336471921999798e+00   1.802621835584073e+00   5.766565682022600e-03  4.30888000e-02  -1.10428378e+00  -1.11276124e+00
C     3.563897175577786e+00   1.782404273220948e+00   1.744163945062848e+00 -3.08801340e-01   3.07731350e-01   1.12918195e+00
C     5.326229609099318e+00   4.195319946097799e-03   1.753572297821549e+00  7.24055000e-01  -1.78361490e-01   3.63349700e-02
C     4.456120294929170e+00   9.143429666918481e-01   8.764120681703972e-01 -1.27498450e-01  -3.37027700e-01  -9.65656800e-02
C     6.207925509971614e+00   2.666012624114928e+00   8.415111347907211e-01  5.54786400e-01   8.31989900e-02   2.12749443e+00
C     4.438168044686586e+00   2.665597421149694e+00   2.708659321286714e+00 -4.13672210e-01  -2.14029070e-01  -9.49698040e-01
C     6.227367045837314e+00   8.662422611806417e-01   2.638573828464824e+00 -5.42810450e-01   1.04227224e+00   5.54295180e-01
C     7.087501608134399e+00   3.559929822745111e+00   7.078638897896010e+00  9.27059900e-02   4.54478030e-01   8.90105310e-01
C     1.794919859675304e+00   5.341416256437364e+00   7.107113888311432e+00 -4.44856030e-01  -6.55133800e-02   4.16322520e-01
C     2.559032143200000e-06   5.323872242905847e+00   1.778827883632373e+00  1.74503440e-01   1.84595600e-02   5.81948800e-02
C     1.748457219072650e+00   3.562179638504341e+00   1.753029214333381e+00  8.76195990e-01  -3.51353990e-01   9.04571600e-01
C     8.857341957627176e-01   4.431735704141975e+00   8.923092023493127e-01 -3.04273180e-01   9.33270050e-01  -8.06796810e-01
C     2.687320120918379e+00   6.224365727638697e+00   8.751866471949353e-01 -3.64006330e-01   3.72976930e-01   4.85543750e-01
C     8.979761079462031e-01   6.206920236844693e+00   2.712109678542236e+00  1.03110580e-01   2.19076670e-01  -1.08391619e+00
C     2.639752547103672e+00   4.442184232382660e+00   2.687423335214821e+00  4.58652180e-01   1.99218820e-01  -4.77221490e-01
C     3.548086053312572e+00   3.552472660911374e+00   7.096943441563640e+00  2.03755390e-01   3.69132600e-01   3.78798720e-01
C     5.310339085753439e+00   5.321984316942202e+00   2.491054297684940e-02  6.21156980e-01   5.08498600e-02  -3.77045230e-01
C     3.545694282353621e+00   5.328994998751177e+00   1.787616524107063e+00  5.86428310e-01   1.37343600e-02   1.09894300e-01
C     5.328917801281523e+00   3.530662527544464e+00   1.830772824096476e+00  2.07755550e-01   9.01477400e-02  -1.61461796e+00
C     4.452538574023631e+00   4.425948666202806e+00   9.410787393448351e-01 -8.46544650e-01   5.40944500e-02  -9.90009320e-01
C     6.228114354307354e+00   6.223211675226340e+00   8.461384335794363e-01 -1.63082110e-01  -1.03753400e-01   1.28924741e+00
C     4.483991851348381e+00   6.218541512649226e+00   2.660151729664738e+00 -1.17663861e+00  -7.45682650e-01  -1.42680420e-01
C     6.228935945793774e+00   4.398880148286977e+00   2.676870881835431e+00 -2.77193180e-01   1.44245525e+00  -4.12258800e-01
C     7.096720734682956e+00   2.760911345608000e-04   3.540492694101436e+00  6.72810740e-01   4.55599700e-01   5.81371370e-01
C     1.771514951693596e+00   1.794734898518731e+00   3.546295654907273e+00 -3.80797100e-02  -5.67922470e-01  -1.08028400e-01
C     7.092419214902915e+00   1.808219931650002e+00   5.299682636151118e+00  7.20102200e-02  -3.72551480e-01   1.50067205e+00
C     1.786672596667353e+00   1.994026279671920e-02   5.326474494258577e+00 -1.68538270e-01  -2.35706370e-01   1.59459980e-01
C     8.460606674359735e-01   9.316510516766076e-01   4.483028944420275e+00  1.89335472e+00  -1.53938945e+00  -2.58582639e+00
C     2.661330590472039e+00   2.656483001666330e+00   4.434643404414685e+00 -3.44655640e-01   8.00717050e-01   3.63792500e-01
C     8.665868064250332e-01   2.672688499218501e+00   6.228546688571103e+00  1.34974700e-01   3.81509400e-02  -4.15684290e-01
C     2.655011060594406e+00   9.279095334305705e-01   6.211309901065222e+00  1.94650400e-01  -7.71626920e-01   5.71888200e-02
C     3.567416555616948e+00   7.071855472358195e+00   3.530582273453084e+00  3.30502930e-01   1.08859388e+00   7.59782260e-01
C     5.324106038925819e+00   1.784654160064404e+00   3.585370867302091e+00 -1.71351650e-01  -1.38680646e+00  -9.23624140e-01
C     3.556078692622274e+00   1.782905985689468e+00   5.308182248162079e+00 -2.89181590e-01  -6.05513000e-02   1.17307366e+00
C     5.339295387464462e+00   7.086892842821222e+00   5.337341566423129e+00  2.92594400e-01   2.63962780e-01  -1.15727490e-01
C     4.428309160102230e+00   8.536627700069326e-01   4.483960076699269e+00  5.75819310e-01   5.71544600e-01  -1.66289514e+00
C     6.208748665311010e+00   2.667023157474588e+00   4.429828727605707e+00  2.62280060e-01   1.52348600e-01   1.56302700e-01
C     4.459966235903496e+00   2.666908356449274e+00   6.225340789969483e+00 -8.13133630e-01   6.48443100e-02  -6.07650280e-01
C     6.241542235720761e+00   9.010803561043570e-01   6.186528873548509e+00 -9.35010530e-01  -1.10512780e-01   7.48320870e-01
C     7.102385365584608e+00   3.537391289312330e+00   3.535333116626935e+00  1.57414380e-01   2.68971800e-01   7.58003750e-01
C     1.787711919138623e+00   5.325445123578975e+00   3.614848287475386e+00 -8.75986820e-01  -5.81698360e-01  -1.57202180e+00
C     6.301829905308600e-03   5.315695637618740e+00   5.313218992093706e+00 -2.79680680e-01   8.77394610e-01   8.19730500e-01
C     1.751700507977251e+00   3.557905486151387e+00   5.345707184667702e+00  8.32080570e-01  -4.52770420e-01  -4.33399000e-02
C     8.722449686621008e-01   4.418475794755079e+00   4.466061210710562e+00  4.42961930e-01   2.65296110e-01  -7.04109900e-01
C     2.691473714423697e+00   6.195179468455918e+00   4.432743394132586e+00 -4.11797000e-01   1.17166196e+00   6.93183070e-01
C     9.245218013783311e-01   6.217724683805963e+00   6.228921160274724e+00 -9.44433220e-01   3.05353040e-01  -8.83957190e-01
C     2.650869551407542e+00   4.475397128642765e+00   6.216977375335922e+00  6.86713540e-01  -1.36833640e+00   1.90216060e-01
C     3.526796825155256e+00   3.564346641140049e+00   3.574787776621209e+00  8.65454030e-01  -1.75710260e-01   9.95010000e-04
C     5.354160378678953e+00   5.304139759302311e+00   3.553379126963876e+00 -2.13450490e-01   5.91485150e-01   3.53604350e-01
C     3.566375740376928e+00   5.329192968321143e+00   5.352058986784028e+00 -3.31992900e-02   5.53640210e-01   5.32885600e-02
C     5.344760129522039e+00   3.539339139278662e+00   5.335349217731195e+00 -5.83227040e-01   6.03069160e-01   1.42272980e-01
C     4.460473919447016e+00   4.444438597532367e+00   4.505047070233046e+00 -7.08610710e-01  -2.15079450e-01  -2.16956575e+00
C     6.250241878744247e+00   6.221977226554151e+00   4.408855611002302e+00 -1.02767156e+00  -5.98632170e-01   1.12936592e+00
C     4.449660515873245e+00   6.223275651029921e+00   6.253019708135692e+00 -1.44285150e-01   8.06800000e-05  -9.36571730e-01
C     6.187170266521512e+00   4.454906247429901e+00   6.204972742299492e+00  1.09124477e+00  -2.48664500e-01   4.46281560e-01
