64
Lattice="7.10842262195238 0 0 0 7.10842262195238 0 0 0 7.10842262195238 " PBC="1 1 1" Properties=species:S:1:pos:R:3:force:R:3 Energy="-512.45806058"
C     4.902010889287720e-02   7.070886807607769e+00   7.106187447591367e+00 -2.12175969e+00   1.39109148e+00  -6.10379560e-01
C     1.771836465648699e+00   1.760909042976104e+00   7.108052982023760e-02 -2.18920700e-01   2.00111100e-01  -2.31801235e+00
C     1.545435053391580e-02   1.754029582648694e+00   1.754818830812193e+00 -7.54310120e-01   4.34851530e-01   1.61086547e+00
C     1.748330191560430e+00   7.064142620562817e+00   1.798865318566308e+00  1.82424109e+00   1.76931426e+00  -1.00644700e-02
C     8.749807161916340e-01   8.402273536655491e-01   9.261656241092060e-01  7.14502650e-01   5.37532720e-01  -7.00367760e-01
C     2.660181940460873e+00   2.678380426463014e+00   8.885443684770822e-01  6.37105160e-01  -5.73591600e-02   1.47978110e-01
C     9.253571832046333e-01   2.627934083655660e+00   2.681224577437502e+00 -1.15266616e+00   1.27766212e+00  -1.30658957e+00
C     2.680104503285269e+00   8.987721801954167e-01   2.670205456113109e+00 -5.67556110e-01  -7.89600230e-01  -4.52336330e-01
C     3.530784081571266e+00   2.169092511957280e-02   7.086953619834623e+00  8.24115190e-01   2.89914260e-01   4.15931600e-01
C     5.362747424288139e+00   1.786278861138431e+00   1.025091409184960e-02 -9.19400630e-01  -1.60606500e-01  -6.39677120e-01
C     3.591104236650478e+00   1.816494419916587e+00   1.798377041016540e+00 -1.82066323e+00  -7.71602060e-01  -3.73373860e-01
C     5.324099641345462e+00   7.309590980145999e-03   1.750011333510060e+00  5.79191760e-01  -4.94772220e-01   8.63717370e-01
C     4.458882699043529e+00   9.376007303253214e-01   9.398248135946670e-01 -2.84793610e-01  -1.29580169e+00  -2.62855638e+00
C     6.230722434566633e+00   2.659996126293587e+00   8.984985770087729e-01 -1.38776070e-01   1.20581835e+00  -4.82876170e-01
C     4.422370783845483e+00   2.675773057045998e+00   2.684505185560858e+00  1.78105650e+00  -5.61911680e-01   5.93167890e-01
C     6.203203598077827e+00   8.764434163141515e-01   2.652734801503030e+00  6.01176840e-01   6.27400700e-02   5.10801890e-01
C     7.095794507215570e+00   3.607177872963049e+00   7.072756820346412e+00  6.48910670e-01  -1.48258200e+00   1.37508391e+00
C     1.737165347572327e+00   5.318636392056635e+00   4.558787811503640e-02  2.42736350e+00   8.69768360e-01  -2.31731237e+00
C     7.073732309182555e+00   5.337939598018149e+00   1.709396294607297e+00  1.25916931e+00  -3.14012650e-01   3.07288345e+00
C     1.772098553190698e+00   3.577393866522154e+00   1.742696624465628e+00 -1.24485280e-01  -1.44313144e+00   1.68193799e+00
C     8.870147070134844e-01   4.465670887224498e+00   8.927563221321108e-01 -8.35408050e-01  -8.19603850e-01  -2.53872140e-01
C     2.677632833656069e+00   6.244314733795239e+00   8.655948971326384e-01 -9.95395260e-01  -1.68393975e+00   1.26073196e+00
C     8.936860327265805e-01   6.238150878372985e+00   2.725029520990990e+00 -5.19363620e-01  -7.69174400e-01  -2.64515754e+00
C     2.645869202599730e+00   4.400866668072362e+00   2.656557995524971e+00  5.29730170e-01   1.83516588e+00   4.01484170e-01
C     3.563197280286621e+00   3.567423166449985e+00   7.095509032963150e+00 -5.27550000e-01  -4.10628550e-01   5.27586870e-01
C     5.282987439364656e+00   5.336215165774763e+00   7.239601451029480e-02  1.49188510e+00  -9.21083520e-01  -3.07221099e+00
C     3.553981281444017e+00   5.280106680013675e+00   1.761363555518427e+00 -6.36570460e-01   2.27463806e+00   1.23870354e+00
C     5.316353593216447e+00   3.565986696406935e+00   1.830016914435065e+00  1.16028651e+00  -1.02636372e+00  -1.30449396e+00
C     4.450004421359600e+00   4.437276221984681e+00   9.458088259246354e-01 -5.00136740e-01  -7.61417500e-01  -1.70573666e+00
C     6.219321306610641e+00   6.181398582775202e+00   8.272790064420882e-01 -3.44222290e-01   2.46089725e+00   2.05843964e+00
C     4.453447812360955e+00   6.222716644675083e+00   2.664373421858756e+00 -1.21129961e+00  -9.45963400e-02  -9.86803950e-01
C     6.235100440974064e+00   4.461142182257522e+00   2.638335127633244e+00 -9.62766440e-01  -5.99985830e-01   8.15848520e-01
C     1.300045196126560e-02   7.097461005814602e+00   3.567822375464324e+00 -7.96707290e-01   1.71528837e+00  -9.66711680e-01
C     1.796696680993399e+00   1.757521950681900e+00   3.548064656960486e+00 -2.31132110e-01   1.49852650e-01   4.71533260e-01
C     1.967803308626740e-02   1.789116898869466e+00   5.289285146384845e+00 -7.32838250e-01  -1.88228390e-01   2.21350731e+00
C     1.742176216845618e+00   7.105599581040693e+00   5.304305740970488e+00  2.00697548e+00   3.68668170e-01   1.62173497e+00
C     8.591746409064805e-01   8.925427851166059e-01   4.470497221846573e+00  1.58149725e+00  -4.31120370e-01  -1.99276239e+00
C     2.686823384345693e+00   2.654728785132167e+00   4.414905873831088e+00 -4.66052310e-01   1.27333770e-01   3.28666530e-01
C     8.858499208829711e-01   2.653720028878162e+00   6.246062481664818e+00  2.71563900e-01   5.40874080e-01  -9.12560410e-01
C     2.635433469519760e+00   9.202294514634701e-01   6.196099724848303e+00  8.90354830e-01  -6.34399890e-01   4.34762190e-01
C     3.530863909157289e+00   7.103139782477268e+00   3.545008888244600e+00  1.47185686e+00   4.04941370e-01  -4.78604180e-01
C     5.303437091726324e+00   1.742096389259595e+00   3.596942668485189e+00  1.36214004e+00   7.87873440e-01  -2.16306173e+00
C     3.584747458638318e+00   1.811961378811813e+00   5.281882363984151e+00 -1.86084566e+00  -1.65023934e+00   1.88819383e+00
C     5.307799957193575e+00   7.079173735613938e+00   5.319014204718887e+00  1.75612295e+00   7.39344020e-01   4.84534960e-01
C     4.428725784751989e+00   8.638234782157344e-01   4.438750366667617e+00  1.02721350e-01   1.70196730e-01   5.12647400e-01
C     6.235320517738380e+00   2.656260792375229e+00   4.425409705599758e+00 -8.74708380e-01   1.10362780e-01   3.68164940e-01
C     4.408447942965045e+00   2.675306744522126e+00   6.204169845964564e+00  2.42753422e+00  -1.86437430e-01   4.65801080e-01
C     6.254787572841285e+00   8.908903611943607e-01   6.184907797770018e+00 -1.10351976e+00  -4.31580590e-01   1.03864851e+00
C     1.038149581537900e-02   3.540579559025852e+00   3.552810026648920e+00 -3.59469750e-01   6.42771570e-01  -6.31968160e-01
C     1.761485820387491e+00   5.376651925438217e+00   3.565014477445198e+00  7.87581800e-01  -3.02586756e+00   9.05169200e-02
C     7.108012250762147e+00   5.396825771002229e+00   5.314310348218554e+00 -3.24411500e-01  -2.12910515e+00   1.29100376e+00
C     1.798538757631145e+00   3.523212260880668e+00   5.308493312735930e+00 -8.90077880e-01   1.06252824e+00   1.33324722e+00
C     8.371601403892454e-01   4.444768144005031e+00   4.467544454174451e+00  2.35655713e+00   1.27020500e-01  -6.45383670e-01
C     2.717537385717963e+00   6.218430265835224e+00   4.418882112192039e+00 -2.74173599e+00   3.97820230e-01   7.23651200e-01
C     9.093101323926620e-01   6.220691952660228e+00   6.252113952925451e+00 -1.22574300e-01  -2.71440130e-01  -1.79031933e+00
C     2.654802570558962e+00   4.440913601839335e+00   6.231374348005112e+00  2.37360000e-02   3.75264160e-01  -6.36331990e-01
C     3.580803421431836e+00   3.515799811025211e+00   3.556142739510080e+00 -1.87649765e+00   1.94422537e+00   2.43425080e-01
C     5.301143914589112e+00   5.359328770597503e+00   3.522674864130596e+00  2.18260836e+00  -1.26496534e+00   1.37721295e+00
C     3.563363048702119e+00   5.351767470372383e+00   5.310185259487943e+00 -4.06784120e-01  -1.35775939e+00   1.69542232e+00
C     5.342459630709528e+00   3.535537839198391e+00   5.322770153062843e+00  9.44154000e-03   1.38316679e+00   7.53870920e-01
C     4.431653033186904e+00   4.428626124666856e+00   4.484699636988655e+00  8.31659540e-01   3.96590270e-01  -2.34437987e+00
C     6.264444649307460e+00   6.240012005583353e+00   4.401874215894521e+00 -2.76291795e+00  -5.57723370e-01   1.25611468e+00
C     4.457389219451066e+00   6.183110646363230e+00   6.236479830383476e+00 -1.19988712e+00   1.74682614e+00  -2.63989490e-01
C     6.223085358556383e+00   4.497254319767420e+00   6.227318424226593e+00 -1.14262498e+00  -1.19320022e+00  -5.41267780e-01
