64
Lattice="7.10842262195238 0 0 0 7.10842262195238 0 0 0 7.10842262195238 " PBC="1 1 1" Properties=species:S:1:pos:R:3:force:R:3 Energy="-510.21205835"
C     1.986462918004240e-02   3.993533153183860e-02   3.388791207209980e-02 -6.17442670e-01  -1.63880032e+00  -3.18903390e-01
C     1.772974310857482e+00   1.783922987713711e+00   7.069841869482628e+00  8.29169890e-01  -1.08569140e+00   2.08063625e+00
C     7.065715643404396e+00   1.723466208751742e+00   1.784658140781071e+00  1.33914420e+00   3.40787510e-01   6.35593520e-01
C     1.779451505548826e+00   7.085853591434178e+00   1.783559889486281e+00  4.16302900e-02   1.23476980e-01  -7.48541420e-01
C     9.051116136563853e-01   8.567358832740110e-01   9.250879161557878e-01 -6.78714540e-01   1.22492270e+00  -1.35096208e+00
C     2.621263255532147e+00   2.649265251506435e+00   8.676754613492862e-01  1.45111429e+00  -2.77086540e-01   2.85375680e-01
C     8.372760787621776e-01   2.648338810786370e+00   2.640898069408885e+00  3.84122300e-02   1.41550555e+00   7.10864580e-01
C     2.616190045392480e+00   8.956616055411309e-01   2.649765826627335e+00  1.41585527e+00  -8.63568620e-01   8.04410250e-01
C     3.639475915231959e+00   8.738668263670800e-03   7.091528031959045e+00 -3.80302152e+00  -6.56569700e-01  -1.29238093e+00
C     5.346971844136026e+00   1.809778382225210e+00   7.049210881259923e+00 -1.19253269e+00  -8.80878030e-01   2.81227668e+00
C     3.516244513944318e+00   1.703210047653790e+00   1.761965141324757e+00  6.89541110e-01   2.60747623e+00   1.58796500e-02
C     5.286037379173993e+00   3.754199671991080e-02   1.719648772552123e+00  2.77171997e+00  -2.68647055e+00   1.74530322e+00
C     4.453997719934838e+00   8.595802475011778e-01   8.236658663085684e-01 -2.08806250e-01   2.76280925e+00   1.32402491e+00
C     6.206114568224943e+00   2.605982919183969e+00   9.471970297780952e-01 -1.30765069e+00   1.39948799e+00  -1.34631648e+00
C     4.439108631167665e+00   2.639711033915571e+00   2.731964427014836e+00 -1.20427035e+00   6.98299900e-02  -2.19006526e+00
C     6.227056265600368e+00   8.069479936539476e-01   2.658676803055315e+00 -9.30459880e-01   3.46334325e+00  -3.55225900e-02
C     7.053557539523601e+00   3.483470278444094e+00   5.998143874136960e-02  1.94284885e+00   2.11124842e+00  -1.63132821e+00
C     1.764086152466113e+00   5.323049300819131e+00   7.022828965884961e+00 -2.75705640e-01   2.13488593e+00   2.64381970e+00
C     7.057690660771774e+00   5.224337976853821e+00   1.806584710110497e+00  2.82664964e+00   4.12905644e+00  -1.24253295e+00
C     1.691087699138773e+00   3.556380445162493e+00   1.690566793929179e+00  1.99990277e+00  -5.49328200e-01   2.72353646e+00
C     8.607597480665143e-01   4.437402822991543e+00   8.071453945501050e-01 -7.59255660e-01  -1.39538020e-01   2.42611789e+00
C     2.678272449523416e+00   6.276868537110018e+00   8.345156650061530e-01  3.72831300e-02  -2.66970482e+00   8.70473670e-01
C     9.394343479401505e-01   6.201952444612481e+00   2.681632103306307e+00 -1.50457329e+00  -2.45025930e-01   3.13154080e-01
C     2.610650735981618e+00   4.431380709516332e+00   2.683309406707722e+00  1.67778022e+00   6.82195700e-02  -1.45442597e+00
C     3.549821290358340e+00   3.519465482401892e+00   7.100043851173579e+00 -1.10786429e+00   3.50185230e-01  -1.89642600e-02
C     5.393510615944940e+00   5.367705549065590e+00   1.376133751851040e-02 -1.52681462e+00  -2.15975319e+00  -3.97116920e-01
C     3.522444124732351e+00   5.318131196461031e+00   1.732797648377695e+00  5.47329660e-01   8.31792700e-02   8.02541890e-01
C     5.282490418455065e+00   3.539043926487254e+00   1.819009806344900e+00  7.96433330e-01  -1.31437400e+00  -1.04739360e-01
C     4.406699768590109e+00   4.377785975246353e+00   8.861925468532551e-01  9.91678840e-01   2.12357515e+00   3.39237700e-02
C     6.232388577744534e+00   6.201221627682918e+00   9.340303828959741e-01 -6.66311400e-02   6.84392950e-01  -1.14945903e+00
C     4.488577636948995e+00   6.218562980085538e+00   2.595771883343017e+00 -3.12672448e+00   3.36667390e-01   1.12605744e+00
C     6.213893883771818e+00   4.424276623034130e+00   2.696301257477618e+00 -4.42491210e-01  -2.96228770e-01  -7.23632450e-01
C     4.434831137856080e-02   8.960173820932620e-02   3.573090214215327e+00 -1.68570022e+00  -5.37808221e+00  -1.09677117e+00
C     1.767199996994804e+00   1.823778207322622e+00   3.523982458471545e+00 -3.35167680e-01  -8.12497810e-01   5.80019070e-01
C     7.095571587082206e+00   1.887428374062400e+00   5.384601629875294e+00  1.25928490e-01  -3.26385345e+00  -1.72250644e+00
C     1.784612007118268e+00   6.514058971051319e-02   5.357640520225253e+00 -4.81710960e-01  -2.37058926e+00  -2.13906109e+00
C     8.576620396571708e-01   9.139866214659076e-01   4.412267796028354e+00  2.04481939e+00   2.68745545e+00   2.32843165e+00
C     2.661909642578664e+00   2.663075352804118e+00   4.463092591255998e+00 -1.34993630e-01   7.61840890e-01  -4.58973700e-02
C     8.949283006636518e-01   2.654747977873241e+00   6.301835734215149e+00 -1.61340313e+00   1.49819236e+00  -2.83405429e+00
C     2.670128827317265e+00   9.317619430694796e-01   6.167225098913184e+00  1.20022954e+00  -1.40398134e+00   2.11659154e+00
C     3.529961423821453e+00   2.508704511050400e-02   3.557086453697111e+00  1.23764259e+00  -1.57912197e+00  -5.80153830e-01
C     5.348352797398413e+00   1.759399142927389e+00   3.552356011696180e+00  3.46649140e-01   1.15374520e+00   4.22604640e-01
C     3.596506495673226e+00   1.732770778540191e+00   5.347983514843304e+00 -5.63509010e-01   3.01119238e+00  -2.06497571e+00
C     5.364145935354398e+00   2.010404085388400e-03   5.337551264890418e+00 -4.85710940e-01  -1.01976660e-01  -8.31377550e-01
C     4.485750830525700e+00   9.136107280777620e-01   4.402893492614004e+00 -1.44711727e+00  -2.03026378e+00   1.84429800e+00
C     6.191069023075903e+00   2.750395571689329e+00   4.486525648591280e+00  1.57946667e+00  -2.35848785e+00  -1.85928530e-01
C     4.470939792238894e+00   2.695501986438224e+00   6.192224070667427e+00 -1.41905301e+00  -1.06347388e+00   1.31554850e+00
C     6.197753001781263e+00   9.255574985540650e-01   6.229597171265886e+00  1.96506252e+00  -4.18745190e-01  -5.02795020e-01
C     7.083743598347883e+00   3.612010960586613e+00   3.621117134299738e+00  7.24894240e-01  -1.77946806e+00  -1.70029048e+00
C     1.829012423234633e+00   5.333103809193989e+00   3.587267394457107e+00 -2.25129298e+00  -6.27780120e-01  -1.00556752e+00
C     2.148641580079540e-02   5.340225240227383e+00   5.332244756320362e+00  3.76461690e-01   4.51068410e-01   2.50144040e-01
C     1.743128887645150e+00   3.620498914784477e+00   5.326257829537119e+00  1.30976959e+00  -4.00305471e+00   1.81588968e+00
C     9.267187304732682e-01   4.454586297327775e+00   4.481256530324205e+00 -1.88946363e+00   1.20014498e+00  -1.71666744e+00
C     2.681485101126525e+00   6.141236990151370e+00   4.454571867229856e+00  1.57697793e+00   3.57175192e+00   7.15233970e-01
C     8.996447390720217e-01   6.277474103633015e+00   6.223999786042220e+00 -6.44892400e-01  -6.08921350e-01  -4.93983290e-01
C     2.603239139136875e+00   4.433101942969539e+00   6.215953762478642e+00  3.72239530e+00  -2.76706890e-01  -6.81535490e-01
C     3.540232596917770e+00   3.577050458625381e+00   3.617198047656653e+00  4.69306740e-01  -1.87279737e+00  -2.13100816e+00
C     5.357483921674934e+00   5.350718835867480e+00   3.485399788680066e+00 -2.20665180e-01   9.47149000e-02   2.29388123e+00
C     3.613707954318686e+00   5.247902184586443e+00   5.334660198326638e+00 -1.32098690e+00   2.88418846e+00   2.07181890e-01
C     5.341790941393666e+00   3.586311098362039e+00   5.392154399993270e+00 -8.01664900e-02   1.62979900e-01  -3.01970303e+00
C     4.509453865752089e+00   4.420147837923755e+00   4.420584508325303e+00 -1.94025089e+00   1.48862177e+00   1.04282735e+00
C     6.245010079695928e+00   6.206092532114821e+00   4.456819266125395e+00  8.64738600e-02   1.26930675e+00  -9.42039750e-01
C     4.478344422829469e+00   6.222292982686932e+00   6.229441070305151e+00  2.79786990e-01  -8.61683580e-01  -7.89680440e-01
C     6.264404131298527e+00   4.431940782134562e+00   6.205361146511449e+00 -1.14172571e+00   6.10875820e-01   2.20479354e+00
