64
Lattice="7.10842262195238 0 0 0 7.10842262195238 0 0 0 7.10842262195238 " PBC="1 1 1" Properties=species:S:1:pos:R:3:force:R:3 Energy="-511.04362585"
C     5.655247783793400e-03   7.638782031678199e-03   7.099220553665731e+00  2.84684510e-01  -1.30119022e+00   4.18502700e-02
C     1.718914259242799e+00   1.748025524566937e+00   7.079801906920868e+00  2.94236158e+00  -5.66156300e-01   1.82890018e+00
C     3.257619484603120e-02   1.767447867691563e+00   1.746815102363203e+00 -1.66102719e+00   2.08708830e-01   2.13430501e+00
C     1.754884157216070e+00   7.073071154794668e+00   1.797391529304503e+00  1.51940667e+00   1.62661722e+00  -3.32160710e-01
C     8.906699290089146e-01   8.578672598182102e-01   9.165488523992865e-01 -1.51967980e-01   4.32115440e-01  -1.55277601e+00
C     2.667338842523141e+00   2.661893293206639e+00   9.426680404742145e-01 -7.60345170e-01   3.24497880e-01  -2.91221527e+00
C     8.446028010408378e-01   2.686806039794500e+00   2.688811965573638e+00  1.77385896e+00  -1.78213711e+00  -7.69980490e-01
C     2.704985333055566e+00   9.551701920098182e-01   2.639209037110147e+00 -2.15917513e+00  -3.19539825e+00   2.09346613e+00
C     3.565707619734874e+00   3.413094904147760e-02   7.080307884442959e+00 -1.08312452e+00  -1.28004997e+00   2.25970580e-01
C     5.274694682451938e+00   1.828390009750026e+00   3.708535165080200e-03  2.01689539e+00  -2.87303555e+00  -6.88559280e-01
C     3.589942507141692e+00   1.814963621105370e+00   1.793428370441175e+00 -1.85577785e+00  -1.53655553e+00  -6.07163370e-01
C     5.357770675443425e+00   7.068729330258372e+00   1.780791798633827e+00 -3.35134300e-02   2.92834305e+00  -9.00797880e-01
C     4.434862699252513e+00   8.803949173643831e-01   8.687373886044880e-01  7.17395640e-01   1.11482035e+00   1.02397326e+00
C     6.219292090993672e+00   2.675066195500665e+00   8.980623331125837e-01  2.29425830e-01  -8.79337710e-01  -1.23414721e+00
C     4.407213707545535e+00   2.669438386228185e+00   2.673876814227887e+00  3.20529277e+00   1.59787950e-01  -1.44399590e-01
C     6.264073376394018e+00   8.984482493766234e-01   2.687837827337793e+00 -1.56548468e+00  -8.49900550e-01  -1.03871254e+00
C     1.800151161134040e-02   3.575144050762924e+00   6.584190668620239e-02 -1.32934032e+00  -8.47119400e-01  -3.50438558e+00
C     1.734323115871947e+00   5.305811091628725e+00   4.946218169561500e-02  2.08919851e+00   9.25021360e-01  -2.07670773e+00
C     1.072362419607960e-02   5.355867110950015e+00   1.767557337399911e+00 -1.14102824e+00  -1.60252694e+00   6.14678140e-01
C     1.721341287977945e+00   3.532761147154566e+00   1.748846191958416e+00  2.22814892e+00   7.21704880e-01   2.76982005e+00
C     8.737666686923641e-01   4.434107429349138e+00   8.988388571995923e-01  3.30794560e-01   2.43924410e-01   5.37696270e-01
C     2.662753767764789e+00   6.213107123556237e+00   9.057876246475471e-01  1.58363620e-01  -7.97781900e-02  -5.41573340e-01
C     8.643231292416942e-01   6.191357198528918e+00   2.678910146116657e+00  1.38195882e+00   1.33502738e+00  -1.07602600e-02
C     2.674817969382775e+00   4.424236602614780e+00   2.686888995086476e+00 -3.20255950e-01   9.15787020e-01  -1.26877627e+00
C     3.588120334087281e+00   3.549986205763124e+00   1.599594125333360e-02 -2.80557696e+00   7.29234340e-01  -1.08615957e+00
C     5.321711780018951e+00   5.302979096056918e+00   2.014185766222240e-02  2.67793100e-02   1.89590590e+00  -1.28572468e+00
C     3.587569218081553e+00   5.328469401982654e+00   1.774171866816274e+00 -7.35946980e-01  -2.12085790e-01   3.82374280e-01
C     5.347890323422756e+00   3.522529639056470e+00   1.724933955854320e+00 -7.58398760e-01   9.23978170e-01   3.44774157e+00
C     4.460562277140182e+00   4.403058621271466e+00   8.793523961029340e-01 -1.88891000e-03   1.27401474e+00   2.90956030e-01
C     6.219226053747533e+00   6.253117733283621e+00   8.416604827499674e-01  1.53220570e-01  -1.94438564e+00   2.01734547e+00
C     4.481200444869733e+00   6.267750918836475e+00   2.651339204890045e+00 -9.15326220e-01  -2.23990077e+00   1.11497568e+00
C     6.212242455028740e+00   4.395243692527265e+00   2.687380826847553e+00 -1.51051730e-01   1.84281559e+00  -1.06416909e+00
C     7.106897650095330e+00   7.089869636961800e+00   3.562142603622491e+00  4.34193400e-01   1.29692721e+00  -2.81668700e-02
C     1.766305757429208e+00   1.731701885030821e+00   3.622407668426399e+00  1.03431690e+00   3.20020822e+00  -3.86862116e+00
C     2.188583806781320e-02   1.790588058014901e+00   5.338238720441998e+00 -1.48942134e+00  -1.74691118e+00  -3.24023840e-01
C     1.755730983602791e+00   7.086652649220892e+00   5.279416381093046e+00  9.48060920e-01   3.13335570e-01   2.09333243e+00
C     8.703937932434004e-01   9.391119809743335e-01   4.450992705356460e+00  4.77261710e-01  -3.72263871e+00  -1.06296250e-01
C     2.669346616492161e+00   2.674359476123785e+00   4.407867824595026e+00 -5.57100300e-02   5.07853490e-01   1.41817163e+00
C     9.011566294790696e-01   2.573203423451006e+00   6.191084874858346e+00 -2.59138500e-01   4.74409401e+00   1.92738706e+00
C     2.631045795657565e+00   9.048187466444411e-01   6.192643183265102e+00  9.65810260e-01  -8.03581290e-01  -1.69277400e-01
C     3.565561541650033e+00   2.503970301585480e-02   3.568454456403694e+00 -2.04797730e-01  -1.23632880e-01  -1.94825535e+00
C     5.336842128649848e+00   1.764368499012579e+00   3.596388495857734e+00  3.67337630e-01   8.99444360e-01  -2.09215407e+00
C     3.545016920762161e+00   1.836251782999293e+00   5.301857884557065e+00 -1.07401239e+00  -2.45139592e+00   2.32185490e-01
C     5.326580480839842e+00   1.002742528467680e-02   5.283773133316844e+00  5.16205470e-01  -5.64563160e-01   1.80413449e+00
C     4.420241740186565e+00   9.128681822508768e-01   4.408171354240901e+00  9.74682520e-01  -3.85799740e-01   2.02299430e+00
C     6.247557098604900e+00   2.669013729060866e+00   4.462206952881771e+00 -1.15229742e+00  -1.12740015e+00   5.26970300e-01
C     4.374694948754272e+00   2.656016120468649e+00   6.193111415063081e+00  2.86154418e+00   9.78841560e-01   1.18448053e+00
C     6.249130050362253e+00   8.101966138755138e-01   6.204770436591727e+00 -1.57204925e+00   4.09445014e+00  -2.63837990e-01
C     7.091723513581096e+00   3.515556987308512e+00   3.571737125969610e+00  2.76935880e-01   2.24944368e+00   2.77498600e-02
C     1.804856865824254e+00   5.365347045524500e+00   3.543006161255641e+00 -1.20520523e+00  -2.48850704e+00   5.97966600e-01
C     7.091302126288181e+00   5.371896959379246e+00   5.343085598405446e+00  6.68514550e-01  -1.45544125e+00   4.97027560e-01
C     1.801055210322852e+00   3.543156930899412e+00   5.326739922759208e+00 -1.24685405e+00   8.06784060e-01   2.48369200e-02
C     8.661362035151514e-01   4.466982888787471e+00   4.488079620860238e+00  6.87102370e-01  -1.24402954e+00  -1.73714745e+00
C     2.680763596230595e+00   6.190479023998443e+00   4.428336101023960e+00 -2.98765430e-01   2.88721421e+00  -6.60793140e-01
C     9.174523329142886e-01   6.159491206186851e+00   6.226681722812520e+00 -1.41819692e+00   2.89348897e+00   1.83756080e-01
C     2.621983978501589e+00   4.524322908767474e+00   6.174260020443294e+00  1.67815502e+00  -3.30679267e+00   2.50356891e+00
C     3.590109910494393e+00   3.561915134098651e+00   3.567257753455617e+00 -2.09563834e+00  -2.87511340e-01  -1.54631962e+00
C     5.332102374615284e+00   5.339604603848431e+00   3.583160432204176e+00  7.69102450e-01  -3.99173710e-01  -1.42310757e+00
C     3.550982948782901e+00   5.371201471310106e+00   5.317792480123188e+00  2.11773330e-01  -1.59988783e+00   5.51178600e-02
C     5.363198098282247e+00   3.490842210290617e+00   5.352996232306475e+00 -1.50196106e+00   3.45205566e+00  -6.14458580e-01
C     4.437584940779068e+00   4.444332326614198e+00   4.398105045884492e+00  7.78401270e-01  -2.57147300e-02   2.63860018e+00
C     6.254182361739418e+00   6.235933548105129e+00   4.470178195839387e+00 -1.66761081e+00  -5.71331000e-02  -1.61118212e+00
C     4.470764569621311e+00   6.203620364896037e+00   6.197911946111046e+00 -1.39137356e+00   1.25378727e+00   4.18593570e-01
C     6.186755845482765e+00   4.527743410647993e+00   6.213917128313786e+00  1.36619839e+00  -4.18340338e+00   7.37432040e-01
