64
Lattice="7.10842262195238 0 0 0 7.10842262195238 0 0 0 7.10842262195238 " PBC="1 1 1" Properties=species:S:1:pos:R:3:force:R:3 Energy="-512.69508834"
C     1.074651331691600e-03   2.487983459113100e-02   7.101916209691687e+00  1.45122670e-01  -1.40371347e+00   7.99889900e-02
C     1.795507655141751e+00   1.729322411643003e+00   1.658416322513860e-02 -4.13898100e-01   1.15827344e+00  -7.94938500e-01
C     7.086797305621209e+00   1.789962019234758e+00   1.754201677560324e+00  1.16976338e+00   1.38687480e-01   7.33749710e-01
C     1.774962607748522e+00   7.105881856502934e+00   1.782830636409696e+00  1.19891578e+00  -1.90450360e-01  -2.01951270e-01
C     9.049334055013017e-01   8.703546258347642e-01   8.973442402595112e-01 -1.11937142e+00   6.07262380e-01  -2.51402400e-02
C     2.689289296152571e+00   2.650587204861076e+00   8.531354672169810e-01 -6.94358580e-01   5.19532790e-01   1.19290443e+00
C     9.483837809345042e-01   2.696590214857120e+00   2.664900369227577e+00 -2.06499417e+00  -1.31554479e+00  -1.74142580e-01
C     2.697101808033082e+00   8.909532707345478e-01   2.628184015794979e+00 -1.57278028e+00   3.71461300e-02   1.48619966e+00
C     3.579397091100696e+00   4.012157220448260e-02   7.070280530242509e+00 -6.25081500e-01  -2.08398530e+00   1.32473296e+00
C     5.274692052335568e+00   1.755555903153660e+00   1.303236877882940e-02  2.30293054e+00   1.45378584e+00  -1.56117170e-01
C     3.547759776714314e+00   1.773269239311986e+00   1.750499966480959e+00  8.14337850e-01   1.92404520e-01   7.93766800e-01
C     5.379479371619547e+00   1.154372291374900e-02   1.779118973538663e+00 -2.25941144e+00  -1.51555012e+00  -1.89935820e-01
C     4.454048474072345e+00   8.943868521126863e-01   9.234062766165745e-01 -3.40591830e-01  -6.94248990e-01  -1.82960720e+00
C     6.182275975379189e+00   2.689405234525503e+00   9.170090516797054e-01  8.10036330e-01  -8.53598760e-01  -2.06926232e+00
C     4.431636825983331e+00   2.665228067510359e+00   2.650517826656305e+00 -1.07261828e+00   8.59111980e-01   3.24409390e-01
C     6.188687843666655e+00   8.908639178622144e-01   2.623545698951203e+00  2.00091163e+00   9.90769020e-01   1.86505833e+00
C     1.075966389876300e-02   3.567834459782778e+00   7.082565661635524e+00 -8.76691470e-01  -1.08174845e+00   1.81443293e+00
C     1.737998525787617e+00   5.325791872434379e+00   2.956257907628220e-02  1.61174018e+00   1.58951950e-01  -4.22664420e-01
C     5.331807446160780e-02   5.293417201369625e+00   1.749948637222552e+00 -2.11529755e+00   1.34336420e+00   1.70760112e+00
C     1.805875644954152e+00   3.568918778569232e+00   1.789119457901609e+00 -1.36714690e-01  -1.46768362e+00  -1.02349281e+00
C     8.991740193261253e-01   4.395436117527587e+00   9.280203537392163e-01  5.70551000e-02   1.30918238e+00  -1.92384967e+00
C     2.662797271311224e+00   6.229438440188782e+00   8.660063326338839e-01  2.58075480e-01  -1.27318700e-02   3.71346550e-01
C     9.500213482534736e-01   6.213157877693743e+00   2.687067985168047e+00 -1.88176585e+00   8.09905100e-02  -7.74804610e-01
C     2.658704668071985e+00   4.433158312760916e+00   2.658950690578863e+00  5.90478670e-01   1.24769249e+00   3.64542600e-02
C     3.551642539317810e+00   3.568702113847775e+00   7.100520897415608e+00  2.08838380e-01   3.90205460e-01   7.22723470e-01
C     5.341896785806477e+00   5.312333495887933e+00   6.676962692233859e-02 -4.98074510e-01   8.63623400e-01  -2.57245348e+00
C     3.571094098059405e+00   5.335396204404713e+00   1.759454304286921e+00 -1.13126502e+00   9.54647500e-01   9.63897150e-01
C     5.291202145797006e+00   3.553036145572461e+00   1.774657229912767e+00  1.21625488e+00   9.03606300e-02   2.84169300e-01
C     4.465689298039083e+00   4.477162718653121e+00   9.314681519625949e-01 -1.43238010e+00  -1.70943149e+00  -1.33210213e+00
C     6.227200353326875e+00   6.190464167395167e+00   8.753123951910832e-01  1.27053450e+00   1.46080572e+00   8.89610690e-01
C     4.428390409372777e+00   6.227294326673911e+00   2.680921545381212e+00  9.76178050e-01  -6.46859110e-01  -5.35516950e-01
C     6.182446790774748e+00   4.432186307051857e+00   2.633328025823942e+00  1.80126469e+00  -5.77617310e-01   7.37529200e-01
C     3.358608844765460e-02   2.223038331220460e-02   3.547736603256573e+00 -1.38720668e+00  -5.25313280e-01  -1.08476070e+00
C     1.805846926926767e+00   1.800671071164467e+00   3.544636691236217e+00 -3.59598310e-01  -8.22364090e-01   4.70770640e-01
C     7.087671783771922e+00   1.829851999030281e+00   5.280772810297394e+00  3.10675600e-01  -1.94167790e+00   2.63180992e+00
C     1.739675615936354e+00   3.388236750245620e-02   5.326660379510090e+00  1.20972142e+00  -1.39323574e+00   1.16234420e-01
C     8.294375500548774e-01   9.146166409627181e-01   4.456044448059815e+00  2.52754217e+00   1.36460380e-01  -1.23563079e+00
C     2.708814284899830e+00   2.656327042874048e+00   4.461037688445008e+00 -1.63355164e+00   7.25492120e-01  -7.28867850e-01
C     9.030757614180173e-01   2.647157462031152e+00   6.250067651305832e+00 -7.26865070e-01   4.62972810e-01  -1.28722741e+00
C     2.673712965086496e+00   8.708415527842341e-01   6.190340267588900e+00 -6.09708840e-01   1.29233291e+00   1.01572897e+00
C     3.530033716479498e+00   7.098066359084922e+00   3.563284003042585e+00  8.73464790e-01   2.26260180e-01  -8.73740060e-01
C     5.285421221101291e+00   1.814727763642838e+00   3.529711491682134e+00  6.27684030e-01  -2.62682059e+00   8.65838320e-01
C     3.562100166339450e+00   1.790478090716970e+00   5.350194802951934e+00 -8.01004830e-01  -9.84885250e-01  -6.36571230e-01
C     5.321122207446849e+00   7.107276102515620e+00   5.310484737332923e+00  1.30144316e+00  -1.09980529e+00   3.12805860e-01
C     4.371525232023789e+00   8.178687344092798e-01   4.488540317730240e+00  2.37867838e+00   3.29010558e+00  -1.66471687e+00
C     6.196425432772751e+00   2.642879115708852e+00   4.430639656458196e+00 -1.49135000e-02   1.81624984e+00  -7.08056680e-01
C     4.408325393759077e+00   2.675140905022401e+00   6.233529337406591e+00  1.38193679e+00  -6.48278820e-01  -2.10308550e-01
C     6.246024167266897e+00   8.950692606842064e-01   6.218264426335499e+00 -1.97281439e+00   5.41102370e-01  -5.84958170e-01
C     4.740251624147000e-03   3.543039570841955e+00   3.523777664815863e+00 -2.07645310e-01   4.76448010e-01   7.72935600e-01
C     1.770734660142599e+00   5.309506760548864e+00   3.569085115658540e+00  1.59052727e+00   6.88078660e-01  -1.96795550e-01
C     6.616590858922200e-03   5.342109896316624e+00   5.318836067648030e+00 -4.84550990e-01  -3.57821790e-01   1.90809100e-01
C     1.777412099099148e+00   3.532648194319135e+00   5.366572182163057e+00  9.57971300e-01   6.53498480e-01  -6.78047470e-01
C     9.159745629358167e-01   4.428047356897135e+00   4.442053153069548e+00 -1.47294723e+00  -1.96484480e-01   6.99066230e-01
C     2.702082537594463e+00   6.234848589560638e+00   4.431030761870749e+00 -2.90729690e+00  -9.43201700e-01   7.46186860e-01
C     8.849059223590351e-01   6.209019282960154e+00   6.244300445865773e+00 -4.33530110e-01   7.08333490e-01  -1.08240061e+00
C     2.664487725294486e+00   4.471834600478299e+00   6.256560484526940e+00 -8.20295140e-01  -7.53792960e-01  -8.01152960e-01
C     3.525999260137292e+00   3.587018386412729e+00   3.528660227060862e+00  1.38106519e+00  -1.38855108e+00   1.90825787e+00
C     5.327060868040501e+00   5.274121956841444e+00   3.529715685651480e+00  8.50044000e-03   2.43089495e+00   1.13654838e+00
C     3.541121362997949e+00   5.350164023481989e+00   5.358038662976199e+00  5.77264980e-01  -1.55932630e-01  -2.32851300e-02
C     5.324817520945856e+00   3.538096658088913e+00   5.336940864640039e+00 -4.03901890e-01   3.65912520e-01   6.82879580e-01
C     4.433133433281745e+00   4.446079150388837e+00   4.516618373826561e+00  2.56984400e-02  -2.55223620e-01  -3.06300477e+00
C     6.260622166127781e+00   6.218955151761484e+00   4.364744436602344e+00 -1.36668275e+00  -3.46895880e-01   2.10274285e+00
C     4.455959289156827e+00   6.206821856275633e+00   6.218031696578920e+00  2.78595810e-01   6.50690010e-01   8.74745930e-01
C     6.179972348860725e+00   4.449070374627333e+00   6.242431357222070e+00  1.97287898e+00  -3.38650660e-01  -9.80337680e-01
