64
Lattice="7.10842262195238 0 0 0 7.10842262195238 0 0 0 7.10842262195238 " PBC="1 1 1" Properties=species:S:1:pos:R:3:force:R:3 Energy="-505.2022613"
C     7.057996038607530e+00   7.025394608861197e+00   7.045177064675753e+00  3.29598321e+00   1.96277470e+00   1.55459534e+00
C     1.730287451097894e+00   1.840844961359432e+00   7.077495294864904e+00  2.34617947e+00  -3.90108222e+00   1.61193558e+00
C     7.106366295504486e+00   1.685940490319631e+00   1.695207243299742e+00 -4.99203290e-01   8.35596970e-01   4.15912668e+00
C     1.798992630415432e+00   7.100882218537382e+00   1.775711195734635e+00  3.59093460e-01  -8.60208500e-02  -5.97194650e-01
C     8.992256975585727e-01   8.287694294128236e-01   8.745207301638938e-01 -1.09010354e+00   3.79788830e-01  -1.88805788e+00
C     2.624706646533501e+00   2.651424861382617e+00   9.163749092977751e-01  9.70145000e-03   1.68816498e+00  -1.88919520e+00
C     9.592775807681067e-01   2.550472607186353e+00   2.639387813939039e+00 -4.48214192e+00   4.08676354e+00  -4.25161210e-01
C     2.676028462670735e+00   9.444004341509348e-01   2.625887639867588e+00  1.89379370e+00  -3.32622871e+00  -1.07410660e-01
C     3.570661266206073e+00   2.288556662509000e-02   7.019496750613383e+00  9.07329480e-01   7.95097130e-01   1.47908231e+00
C     5.414822235633509e+00   1.864830058795384e+00   7.039586716790479e+00 -3.80102937e+00  -3.17172295e+00   1.11943894e+00
C     3.560335358255582e+00   1.808353712163710e+00   1.764787824862933e+00 -4.19348630e-01  -3.81276850e-01  -1.03782363e+00
C     5.406181521433543e+00   7.058210073212617e+00   1.710925956070895e+00 -1.62867613e+00   1.53444255e+00  -1.13304904e+00
C     4.490249822286124e+00   9.294596671513140e-01   7.835825374177814e-01 -7.26753160e-01  -3.25084360e-01   1.56984726e+00
C     6.136069664496213e+00   2.628521168279846e+00   1.016698281344848e+00  2.44051723e+00   1.38385486e+00  -3.51888771e+00
C     4.334147866371757e+00   2.726083842233988e+00   2.673270323609948e+00  2.48147424e+00  -2.30984735e+00   1.34997793e+00
C     6.189204554906903e+00   8.290790723021508e-01   2.605596007740762e+00  3.37771861e+00   1.14803837e+00   1.91566733e+00
C     7.055518042482197e+00   3.491592148877027e+00   1.457144179397608e-01  4.78975700e-02   1.78369995e+00  -4.64330818e+00
C     1.789387161097479e+00   5.389965716668572e+00   7.101464753771091e+00 -1.59759399e+00  -1.04290806e+00  -4.42642710e-01
C     7.083687868314543e+00   5.145760833454307e+00   1.798449049337681e+00  9.31868550e-01   5.77704102e+00  -5.29268030e-01
C     1.653763859909070e+00   3.600626253086873e+00   1.755931156783770e+00  4.57849916e+00  -3.55708948e+00   1.09409040e+00
C     8.647083346634720e-01   4.427769062151563e+00   8.347540815008279e-01 -5.29926900e-02   4.11528760e-01   2.62531979e+00
C     2.743206823893723e+00   6.212114787758485e+00   8.231207213778405e-01 -2.15114942e+00  -6.11046200e-02   1.88956942e+00
C     9.339510528995347e-01   6.257743254966681e+00   2.749458752672239e+00 -2.16806240e-01  -1.88622940e+00  -1.64666168e+00
C     2.627395265221064e+00   4.382394152378221e+00   2.643492003907149e+00 -7.65871440e-01   2.84288723e+00   2.35315820e+00
C     3.542930314386286e+00   3.568202533906041e+00   3.977780888657940e-02 -1.59528564e+00  -1.44243332e+00  -1.28608320e+00
C     5.322842943310472e+00   5.338182137397943e+00   2.411475506454040e-02 -2.63873460e-01  -7.43119100e-01   1.96699590e-01
C     3.494838423319128e+00   5.204482304286281e+00   1.729307839376632e+00  1.83385453e+00   4.56687164e+00   1.47193334e+00
C     5.253161279977624e+00   3.592332358826536e+00   1.850191399757114e+00  1.07250501e+00  -3.93015945e+00   3.72151650e-01
C     4.405176220369964e+00   4.377488558843933e+00   9.657136887767069e-01  7.92646200e-01   2.17505194e+00  -3.74755444e+00
C     6.257370631452941e+00   6.152108185201040e+00   8.339074683667858e-01 -6.94580180e-01  -3.30324860e-01   2.57340445e+00
C     4.541167737850089e+00   6.273574849489040e+00   2.579498855775956e+00 -4.01848925e+00  -3.09475120e+00   2.03533234e+00
C     6.205526346253137e+00   4.332086210559278e+00   2.713016926521226e+00  1.47686487e+00   2.77291211e+00  -4.40063840e-01
C     7.010148677278501e-02   4.196834040115860e-02   3.617201317531058e+00 -2.61816536e+00  -1.16491146e+00  -2.58622884e+00
C     1.861458747199397e+00   1.791686593646596e+00   3.452391757159870e+00 -1.87646611e+00  -2.02169000e-02   4.78077444e+00
C     5.101928167052600e-03   1.810074448027334e+00   5.313644786608644e+00 -1.52806265e+00  -2.32925640e-01   9.32270250e-01
C     1.699918705812278e+00   7.197548022809559e-02   5.312316720010550e+00  2.99937394e+00  -1.41639093e+00   4.92883980e-01
C     8.694864741801835e-01   9.735557716953172e-01   4.448057850909340e+00  1.44078061e+00  -9.64881120e-01  -1.90684750e+00
C     2.658535061108272e+00   2.652842209768818e+00   4.507320485955375e+00  5.93579040e-01   1.85829504e+00  -3.16634523e+00
C     8.358821881706218e-01   2.619972081647450e+00   6.274617797255847e+00 -6.14359970e-01   3.25207644e+00  -1.07026432e+00
C     2.626933573171895e+00   9.288100284080723e-01   6.153850886090559e+00  1.60705440e+00  -3.18595920e-01   9.44847110e-01
C     3.564917376392208e+00   3.283188480767259e-02   3.497938619676389e+00  1.75916491e+00  -6.49450290e-01   1.43099680e+00
C     5.365975358999882e+00   1.702107104800071e+00   3.556812921594694e+00 -3.91910040e-01   5.05430971e+00  -2.37973046e+00
C     3.612423178014347e+00   1.796122746951060e+00   5.255276675465110e+00 -1.68095011e+00  -4.04966830e-01   2.35082044e+00
C     5.376548142467964e+00   7.095264787561927e+00   5.309786263726282e+00 -5.73904190e-01   1.10625125e+00  -9.03994930e-01
C     4.560772980688728e+00   9.599059653277145e-01   4.415055292874562e+00 -4.92904810e+00  -4.57479405e+00   8.84163370e-01
C     6.089924912553125e+00   2.732240731402075e+00   4.493986222467874e+00  6.21714866e+00  -3.50606585e+00  -1.30234825e+00
C     4.397206470181099e+00   2.703263175507419e+00   6.165099111875994e+00  1.47257836e+00   2.27914030e-01   2.72046016e+00
C     6.238574256024233e+00   8.486533935023923e-01   6.158734443514725e+00  8.55789870e-01   1.97658072e+00   1.48583198e+00
C     2.430810415980440e-02   3.496989858509298e+00   3.641607233586114e+00 -1.57231149e+00   3.58502230e-01  -1.48151572e+00
C     1.807973482637767e+00   5.372365973103714e+00   3.608654718846580e+00 -6.95776450e-01  -1.73328106e+00  -2.38706280e-01
C     7.063247101481150e+00   5.342363667004158e+00   5.387212908924750e+00  2.15355864e+00  -6.57267770e-01  -1.24702453e+00
C     1.776319676710907e+00   3.588994670069541e+00   5.346602703749369e+00 -1.53355527e+00  -1.66135524e+00   1.63226229e+00
C     8.793747876341870e-01   4.450198907802484e+00   4.533939253972036e+00 -4.61603000e-01  -2.95488090e-01  -2.81729302e+00
C     2.681556327521177e+00   6.198805119413249e+00   4.529481988652392e+00  4.91847290e-01   2.18465646e+00  -2.81447717e+00
C     9.224412371616831e-01   6.230628816640727e+00   6.206817235800930e+00 -2.69566437e+00   5.70934600e-01   8.29790900e-02
C     2.567039852365656e+00   4.509111524118710e+00   6.211412688856307e+00  4.27134940e+00  -2.39988220e+00   2.23159142e+00
C     3.526921862309141e+00   3.585293456579759e+00   3.643523664324466e+00  2.85066630e-01  -9.99620180e-01  -2.47669494e+00
C     5.388985465189274e+00   5.373907434548861e+00   3.495244385334957e+00 -5.79180780e-01  -1.16590921e+00   2.08017676e+00
C     3.548015537760182e+00   5.318809126726300e+00   5.446900201138105e+00  1.89648058e+00   1.76284570e+00  -3.88278294e+00
C     5.316588313331360e+00   3.586888231194557e+00   5.393088162388634e+00 -7.10150750e-01   6.95090410e-01  -1.94451779e+00
C     4.528267443563538e+00   4.432498366804874e+00   4.445413375526248e+00 -3.96544104e+00   2.64842616e+00   4.64214300e-01
C     6.249847929962647e+00   6.234008729428084e+00   4.441893355729050e+00  6.32541400e-01  -2.08886990e-01  -3.16956980e-01
C     4.561499674733169e+00   6.257291727961858e+00   6.216308543851606e+00 -4.97109210e+00  -1.35660844e+00   3.88089400e-01
C     6.172613354343371e+00   4.488117579837029e+00   6.246134916491316e+00  9.03070390e-01  -2.49140566e+00   1.61634486e+00
