64
Lattice="7.10842262195238 0 0 0 7.10842262195238 0 0 0 7.10842262195238 " PBC="1 1 1" Properties=species:S:1:pos:R:3:force:R:3 Energy="-500.2124545"
C     8.193772127734700e-02   7.041294444240708e+00   7.060082716067630e+00 -2.19606256e+00   3.30248033e+00   1.38630488e+00
C     1.859603875400934e+00   1.798916285956493e+00   8.526034017838739e-02 -3.50235655e+00  -2.40734920e-01  -3.03654605e+00
C     7.047120436335834e+00   1.712451636817826e+00   1.744215694379522e+00  1.89211720e+00   2.78671589e+00   1.63507592e+00
C     1.701110575032973e+00   3.020859252398780e-02   1.769700100314484e+00  2.37095176e+00  -1.36762443e+00   1.79354300e+00
C     8.509265959720421e-01   8.874075895316917e-01   8.840216345851072e-01  1.71733507e+00  -4.97513810e-01   1.32980450e-01
C     2.651975621967214e+00   2.756577127083907e+00   9.400094193301084e-01  3.24269290e-01  -2.98024524e+00  -1.79756500e-01
C     8.514487806977074e-01   2.679812489284039e+00   2.745757823519362e+00 -5.94567030e-01  -1.81012691e+00  -1.72970700e+00
C     2.638256295226388e+00   9.557975813902594e-01   2.696092838526399e+00  1.10916656e+00  -1.65129924e+00  -1.45380526e+00
C     3.431765815917226e+00   1.606098332030660e-02   5.271620431837239e-02  2.26673838e+00  -4.73648160e-01  -2.01580899e+00
C     5.300580785349156e+00   1.687107622229609e+00   7.101990634876519e+00  1.32362161e+00   5.39179471e+00  -6.86123480e-01
C     3.591147953449592e+00   1.843796165178578e+00   1.857259517620858e+00 -1.93472234e+00  -9.96221000e-03  -2.03484889e+00
C     5.368209251892442e+00   1.014575208760932e-01   1.788577796097966e+00 -3.23435367e+00  -3.39978888e+00  -5.70676200e-01
C     4.383902346405506e+00   1.013081800252696e+00   9.569383410523170e-01  1.41744585e+00  -4.91574966e+00  -2.07393130e+00
C     6.259318765756178e+00   2.717366072732820e+00   8.544202435213197e-01 -9.56189170e-01  -2.18453193e+00  -3.62114000e-03
C     4.552442762388802e+00   2.664961430577883e+00   2.629112873378735e+00 -1.89181372e+00  -7.44152130e-01   2.64255922e+00
C     6.225829138603476e+00   8.395068439487861e-01   2.722317160171877e+00  9.43616120e-01   2.10817063e+00   3.10042200e-02
C     1.276030811989414e-01   3.676415544219051e+00   6.987392128523963e+00 -5.20724114e+00  -4.23225769e+00   3.36971034e+00
C     1.746866709511425e+00   5.234360781663796e+00   8.542902304716000e-03  3.40681599e+00   2.23092586e+00   6.18180650e-01
C     6.945355689434105e+00   5.402064536304716e+00   1.621834673689911e+00  3.44096061e+00  -1.55222554e+00   4.40655841e+00
C     1.686583518229836e+00   3.547646113036620e+00   1.868245584780068e+00  5.30204930e-01   1.01035760e+00  -3.43641889e+00
C     8.043632290208632e-01   4.504547987880897e+00   9.029313182703788e-01  2.14368373e+00  -1.74290535e+00  -8.73279210e-01
C     2.639716009811405e+00   6.140733216240290e+00   9.077417300257851e-01  2.85952790e-01   6.60338780e-01  -2.37899260e-01
C     8.329704360970174e-01   6.280387277391144e+00   2.673831817912702e+00 -1.02114951e+00  -1.00262393e+00  -2.08753000e-02
C     2.647105286209122e+00   4.364317149318656e+00   2.605276910649351e+00  5.93362970e-01   1.31148240e+00   2.12051552e+00
C     3.555115145936133e+00   3.487225444861561e+00   7.062713756531971e+00  1.29371212e+00   2.15000323e+00   8.98820320e-01
C     5.248550828150518e+00   5.406753536201774e+00   7.064656843855148e+00  3.50184590e-01  -4.69744297e+00  -1.60948750e-01
C     3.647274494604135e+00   5.128073371954317e+00   1.744388713386093e+00 -3.41945058e+00   6.34867562e+00   1.01946323e+00
C     5.329153161154472e+00   3.544022025932266e+00   1.780399271536751e+00  4.39079742e+00  -6.50995120e-01  -1.53464822e+00
C     4.588712920133542e+00   4.340369300017233e+00   8.855729767376960e-01 -6.22504334e+00   3.03124426e+00  -2.80455948e+00
C     6.119628167313057e+00   6.215533086027991e+00   7.573021303178318e-01  2.02401978e+00   4.29744510e+00   2.26648270e+00
C     4.445769507499509e+00   6.308596128463673e+00   2.713196129855476e+00  1.95962474e+00  -2.91226740e+00  -2.16736483e+00
C     6.170001790957008e+00   4.508607323702273e+00   2.553645878128147e+00  2.59136000e-01  -1.26712263e+00   4.09107239e+00
C     7.072307852373733e+00   7.089999152421936e+00   3.760144872333543e+00  1.63645233e+00   2.10449914e+00  -7.26204737e+00
C     1.730761298549743e+00   1.754249232907652e+00   3.515770524324016e+00  6.60988850e-01  -1.95520730e-01   3.88819510e+00
C     1.144575463320016e-01   1.747850373033580e+00   5.341015341401597e+00 -3.27746515e+00   7.99415350e-01   3.47643904e+00
C     1.795001890872338e+00   7.062044925047656e+00   5.399221522677847e+00  1.36258658e+00   1.44319095e+00  -3.83377913e+00
C     8.456431186912748e-01   8.306507445434328e-01   4.559374825043600e+00  3.49966209e+00  -4.99069450e-01  -3.53086848e+00
C     2.678611592366616e+00   2.600765123728210e+00   4.454099086041399e+00 -2.27447847e+00   4.04603654e+00  -5.78268427e+00
C     9.451935208626482e-01   2.615351109354867e+00   6.224851090735191e+00  1.18264458e+00   3.93629573e+00  -2.58071000e-01
C     2.611736760789502e+00   9.344740906359145e-01   6.114862467535931e+00  2.57672637e+00  -3.94635120e-01   5.69379682e+00
C     3.614967637891175e+00   8.959022256468180e-02   3.569497190917821e+00 -1.87870745e+00  -7.51924860e-01  -1.37700361e+00
C     5.422213004799976e+00   1.781724708018476e+00   3.595484517753148e+00 -2.31358271e+00  -1.55498902e+00   3.07987150e-01
C     3.554940776329265e+00   1.891531355598664e+00   5.251084554309191e+00 -8.22362000e-02  -5.81741476e+00   3.03113791e+00
C     5.261687690741861e+00   7.081051496533238e+00   5.456227020289354e+00  1.84682666e+00   2.78733721e+00  -3.77885982e+00
C     4.422115378220745e+00   9.159521714045636e-01   4.542816607561024e+00  1.71982140e+00   1.33387620e-01  -2.94765014e+00
C     6.264575231030989e+00   2.536919475366382e+00   4.572502731022442e+00  1.06274108e+00   4.07435318e+00  -4.63072790e+00
C     4.396628981927449e+00   2.654549155292559e+00   6.134938927710049e+00  3.04849837e+00   4.03111500e-02   3.01835261e+00
C     6.309566357067077e+00   9.521385208466144e-01   6.227579161168295e+00 -2.73986241e+00  -4.94636010e+00   1.69933106e+00
C     7.079500865222911e+00   3.481791197937023e+00   3.653067219281399e+00  4.66725160e-01   2.96776868e+00  -2.59412881e+00
C     1.679180877997595e+00   5.349294023637528e+00   3.517263079821538e+00  3.61037883e+00   1.32738190e-01  -1.31291103e+00
C     7.078626884661782e+00   5.408346320458238e+00   5.444021005640099e+00  1.30988845e+00  -6.63776430e-01  -4.13833753e+00
C     1.815094202828899e+00   3.579835822944802e+00   5.239141409128425e+00 -4.39203380e-01  -1.39196948e+00   2.07008192e+00
C     8.137428637521793e-01   4.514815962187034e+00   4.438365090161613e+00  1.48363146e+00  -1.91620964e+00   1.12256973e+00
C     2.806517136948039e+00   6.224733446340830e+00   4.268328209048356e+00 -5.42001516e+00  -1.73411934e+00   5.23364404e+00
C     1.019863235432176e+00   6.194290204786156e+00   6.270933857233032e+00 -3.81033237e+00  -1.01322860e+00  -8.08169410e-01
C     2.704800300814768e+00   4.374571830874494e+00   6.174721925745141e+00 -1.44300451e+00   1.82634767e+00   1.47842290e-01
C     3.586159760044459e+00   3.465270868347012e+00   3.418089992722834e+00 -5.88881740e-01   1.94614360e+00   5.11172814e+00
C     5.358187157924731e+00   5.353839788818791e+00   3.574659114171787e+00 -6.64722530e-01   4.91166830e-01  -6.36206390e-01
C     3.597542050680508e+00   5.296801165957876e+00   5.247448169633704e+00 -1.67687888e+00  -1.28885881e+00   3.58179300e-02
C     5.449962012013217e+00   3.526745431259713e+00   5.272446857051041e+00 -4.16568191e+00   1.60839770e-01   3.62271760e+00
C     4.490259134319755e+00   4.346293388344515e+00   4.453087130997217e+00  3.75016450e-01   2.09695505e+00  -3.44874595e+00
C     6.214071096747735e+00   6.307667057627239e+00   4.498595465863135e+00 -2.71607670e+00  -4.75285325e+00   2.91124011e+00
C     4.330643485104323e+00   6.159079202011796e+00   6.156269669055467e+00  1.73572035e+00   2.74845787e+00   3.87890631e+00
C     6.183040272979292e+00   4.511849333090804e+00   6.205891434838901e+00  2.02798645e+00  -1.08695035e+00  -2.85422440e-01
