64
Lattice="7.10842262195238 0 0 0 7.10842262195238 0 0 0 7.10842262195238 " PBC="1 1 1" Properties=species:S:1:pos:R:3:force:R:3 Energy="-504.053214"
C     5.155980612655080e-02   7.634488544415720e-02   8.316271574745160e-02 -3.31340421e+00  -1.87002012e+00  -2.66256185e+00
C     1.903830348415788e+00   1.770076633460665e+00   9.374445582803601e-03 -3.68572402e+00   1.15935996e+00  -1.13659317e+00
C     7.068417199421128e+00   1.798605221382642e+00   1.932692179190191e+00  1.72531302e+00   1.34721125e+00  -6.08410390e+00
C     1.711529461151333e+00   2.934449267030060e-02   1.783220462306176e+00  1.90489251e+00  -1.55277076e+00   5.09871590e-01
C     8.779538139524490e-01   9.439975998410592e-01   8.629517723498438e-01  2.12942849e+00   1.17244615e+00   3.93383188e+00
C     2.779226409741109e+00   2.737362278815559e+00   7.945704527668727e-01 -3.72893597e+00  -4.55132076e+00   4.56617367e+00
C     8.533389102723653e-01   2.708598331020634e+00   2.702070950865593e+00  2.58428455e+00  -1.00864247e+00  -6.21745310e-01
C     2.684452938654601e+00   8.948327634636390e-01   2.699261133572359e+00 -2.27558311e+00  -1.85521400e-01  -5.89035990e-01
C     3.558552708030939e+00   7.024518140352151e+00   7.056743534541885e+00 -5.27390070e-01   1.12699612e+00   1.04691754e+00
C     5.314910156919230e+00   1.678924263941012e+00   7.309804232824600e-02  4.30893880e-01   4.69547191e+00  -2.80855955e+00
C     3.523988856051903e+00   1.718319568606410e+00   1.717945594492371e+00  1.97350706e+00   1.03119038e+00   1.50311646e+00
C     5.390766338308262e+00   3.067725082732440e-02   1.775559075490567e+00 -2.53388990e+00  -1.44387498e+00   1.27283525e+00
C     4.452050438642316e+00   8.474332327596694e-01   8.507191721999905e-01 -9.85259960e-01  -1.95070412e+00   1.45937461e+00
C     6.110688970447276e+00   2.632873442197393e+00   9.521664569475109e-01  3.04233357e+00  -8.32897440e-01  -4.11802130e-01
C     4.393383844832967e+00   2.609785427696085e+00   2.665121227918380e+00 -8.05043330e-01   2.46933703e+00  -1.83875595e+00
C     6.248663595669929e+00   9.281792980689996e-01   2.702706159510916e+00 -2.10720839e+00  -1.24301877e+00   2.23773280e-01
C     7.090027017438606e+00   3.521493799712283e+00   7.026979716021231e+00  3.17429340e-01  -2.14683108e+00   6.28470926e+00
C     1.680922796960625e+00   5.373060963583272e+00   7.041808809701491e+00  2.39502953e+00  -1.45926158e+00   2.40482131e+00
C     7.106784199670316e+00   5.324566309290464e+00   1.794499112140425e+00 -1.58362230e-01  -3.75625363e+00  -2.35748460e-01
C     1.843840095230370e+00   3.480643045515441e+00   1.723295535524636e+00 -2.58819361e+00   3.11577829e+00   1.39877320e-01
C     8.197877952640011e-01   4.376005173211591e+00   8.077461273457212e-01  2.31933221e+00   1.83950450e+00   1.92378992e+00
C     2.564886071396022e+00   6.228283676934162e+00   8.822635084185027e-01  2.14977753e+00  -3.38253100e-01  -9.05615080e-01
C     8.815729962451958e-01   6.098425661911705e+00   2.650599431347982e+00  3.82748050e-01   4.93894270e+00   1.00823388e+00
C     2.693573897886776e+00   4.465468510432506e+00   2.601192908601482e+00 -6.67557200e-02  -2.53252622e+00   8.57933180e-01
C     3.531887806351473e+00   3.600585735077939e+00   7.079388694313967e+00  3.80916290e+00   3.94765190e-01   2.63295770e-01
C     5.468493527615105e+00   5.399418425984422e+00   7.049995508948720e+00 -2.76364398e+00  -5.47749610e-01   1.89549237e+00
C     3.579764170044792e+00   5.351946389369727e+00   1.715497666994722e+00 -2.70503200e+00   4.16361190e-01  -7.56273220e-01
C     5.226695414131519e+00   3.494258020612206e+00   1.783371089781494e+00  2.28128419e+00   3.20956143e+00  -1.59498501e+00
C     4.474506087867348e+00   4.585440344527746e+00   7.102549641231356e-01 -1.34335487e+00  -3.22873696e+00   5.63160698e+00
C     6.307557019245081e+00   6.205408062100741e+00   9.930128039223287e-01 -2.29883142e+00   2.86804663e+00  -3.62855629e+00
C     4.330499681714721e+00   6.204279102420232e+00   2.630283986005379e+00  4.82516543e+00   9.14092910e-01   1.98264319e+00
C     6.182129612957444e+00   4.408380057529024e+00   2.683027557750839e+00  5.57008500e-02  -4.41846380e-01  -1.22589612e+00
C     2.070797243967920e-02   6.427385974045660e-02   3.567145866883578e+00 -7.62897600e-02  -2.03244953e+00  -5.75777500e-02
C     1.810842299838746e+00   1.860571118466837e+00   3.593592539988609e+00  8.36881300e-01  -6.95252960e-01  -1.20161162e+00
C     7.089986997019256e+00   1.818912349870780e+00   5.370211125870687e+00  9.19875140e-01  -1.22660920e+00  -8.92876250e-01
C     1.644080908784558e+00   1.442988466592140e-02   5.323900960933232e+00  4.12542006e+00   5.26036090e-01   4.27861500e-01
C     9.332053082824706e-01   1.009236356867955e+00   4.405828844650705e+00 -2.18184128e+00  -3.19650045e+00   2.08784829e+00
C     2.772032899302347e+00   2.701248079863102e+00   4.480064021345473e+00 -3.83629500e+00  -1.83047405e+00  -4.60818300e-02
C     8.838765516794330e-01   2.694942908999161e+00   6.214115382220657e+00  4.55264240e-01  -2.17410482e+00  -2.82932200e-01
C     2.676883392659242e+00   8.246736984676319e-01   6.224935467711690e+00 -5.00249380e-01   8.97224820e-01  -5.52616860e-01
C     3.536034149265719e+00   7.070686136837206e+00   3.668634735903425e+00 -8.51555230e-01   7.62999000e-02  -4.03194699e+00
C     5.300989093144448e+00   1.878321347338560e+00   3.481804846108453e+00  1.26538048e+00  -5.19780566e+00   4.77392812e+00
C     3.596193582909494e+00   1.686540085767628e+00   5.386297841680878e+00 -7.68136200e-02   3.24317735e+00  -1.35113376e+00
C     5.392490983804327e+00   3.684394961862680e-02   5.268020371201342e+00 -1.24149224e+00  -1.35031392e+00   1.82742168e+00
C     4.462265881705291e+00   8.237564986969734e-01   4.448769332929376e+00 -9.55635000e-03   3.16865260e+00  -4.88512890e-01
C     6.188645619636293e+00   2.622297317770678e+00   4.524611510725847e+00  5.62904300e-02   4.15939110e+00  -2.67333936e+00
C     4.431145349643383e+00   2.714842795955399e+00   6.295585298205382e+00  1.41057453e+00  -2.82609269e+00  -2.42803929e+00
C     6.222575258149171e+00   9.197187823824494e-01   6.214319749370983e+00  1.36316470e-01  -1.13136102e+00   1.65362051e+00
C     7.088214867260090e+00   3.565782897930419e+00   3.577179049990577e+00 -6.88730590e-01  -8.57254540e-01  -6.82483870e-01
C     1.742008742408691e+00   5.233993844888151e+00   3.534103288429449e+00  2.87952217e+00   3.54882211e+00  -1.38117155e+00
C     8.027705158486259e-02   5.284691470435122e+00   5.342151551673178e+00 -3.77034881e+00   2.28987196e+00  -6.65878380e-01
C     1.706744852970037e+00   3.540600457788355e+00   5.337647015343110e+00  4.41670931e+00   7.16799720e-01  -1.09737440e+00
C     8.895470825718593e-01   4.424584844238933e+00   4.339711344419527e+00 -2.91391790e-01  -7.15114910e-01   5.40055878e+00
C     2.609025750570686e+00   6.201645574007975e+00   4.503860390160864e+00 -6.34707700e-02  -1.43074092e+00  -1.17510959e+00
C     7.845746599628548e-01   6.303968616422280e+00   6.237148875120470e+00  2.84262093e+00  -2.54466516e+00  -1.18511917e+00
C     2.698035712596897e+00   4.385908130016192e+00   6.264778674086374e+00 -4.23817528e+00   3.90333111e+00  -4.07770496e+00
C     3.568921693022507e+00   3.544424931326367e+00   3.538456059936580e+00  4.32149910e-01   5.86996910e-01   1.12094037e+00
C     5.349477349856897e+00   5.283376198997743e+00   3.508407478005768e+00 -2.05496055e+00   2.80599469e+00   1.95513917e+00
C     3.609704632867554e+00   5.249720732345318e+00   5.327937834139131e+00 -2.97572204e+00   2.82650136e+00   1.03082390e+00
C     5.398194142356579e+00   3.666067671242665e+00   5.361420566121891e+00 -2.90739472e+00  -5.43889561e+00   7.55049250e-01
C     4.469930609479532e+00   4.447689421364945e+00   4.500924895955709e+00  1.18780513e+00  -6.49708130e-01  -3.96178859e+00
C     6.226759275703304e+00   6.253280445077393e+00   4.439457939055211e+00  1.49958021e+00  -1.72814400e+00  -9.27405510e-01
C     4.465087925485431e+00   6.226864267105401e+00   6.119673376880921e+00  1.69667482e+00  -5.30565840e-01   2.18644710e+00
C     6.223243876380809e+00   4.351247745657977e+00   6.342669712534607e+00  1.16123720e+00   5.23862859e+00  -6.48490078e+00
