64
Lattice="7.10842262195238 0 0 0 7.10842262195238 0 0 0 7.10842262195238 " PBC="1 1 1" Properties=species:S:1:pos:R:3:force:R:3 Energy="-509.10281006"
C     7.033302657941721e+00   7.079509039908923e+00   8.951778773818399e-03  3.22485612e+00   8.04969720e-01  -1.78779410e-01
C     1.734677115318422e+00   1.837690812074486e+00   7.003802846237173e+00  1.03490458e+00  -1.06987855e+00   3.85553303e+00
C     7.101065544756752e+00   1.731767282518926e+00   1.788766524718527e+00  6.48200300e-02   1.50738345e+00  -6.12065360e-01
C     1.837404769148257e+00   7.106084944137186e+00   1.755888150826919e+00 -8.65789790e-01   1.76376182e+00  -1.89872244e+00
C     8.727797352958034e-01   9.457597067243311e-01   8.242262943479292e-01  1.18953090e-01  -2.00880835e+00   1.01877927e+00
C     2.657438658003363e+00   2.684089413921814e+00   9.153200193809672e-01 -6.44849720e-01  -2.64719030e-01  -1.67641779e+00
C     8.893629033417751e-01   2.640919892266328e+00   2.715528474401324e+00 -1.38268716e+00   5.88899500e-01  -1.76542223e+00
C     2.667057704408521e+00   9.666419776866528e-01   2.624178703985514e+00 -1.26257550e+00  -3.85571664e+00   2.93078626e+00
C     3.611306160483840e+00   8.953626963699599e-03   7.049789364692739e+00 -1.34617579e+00   1.67217960e-01   3.45863822e+00
C     5.371208153227369e+00   1.872234547217507e+00   7.045546276146635e+00 -2.60985260e-01  -3.64014597e+00   3.51968828e+00
C     3.511577621241610e+00   1.794973741518763e+00   1.786712617086704e+00  1.95280454e+00   7.83895200e-02  -4.77774960e-01
C     5.360428159239912e+00   7.037960309695023e+00   1.823488396932405e+00 -2.27608566e+00   1.26256700e+00  -1.64609233e+00
C     4.437521249312392e+00   8.914832036408689e-01   9.448502551343283e-01  7.73722570e-01   3.02582820e-01  -2.47974832e+00
C     6.222544052173870e+00   2.693921641921346e+00   9.012606967862263e-01 -2.50123000e-03  -4.94617260e-01   7.10505400e-02
C     4.431375093862463e+00   2.652357912935718e+00   2.692286633634520e+00 -5.05210500e-02   9.15171020e-01  -2.19150977e+00
C     6.213386058059846e+00   8.025802944593148e-01   2.651053233048043e+00  1.31517430e+00   2.23237044e+00   2.78104130e-01
C     7.093084776512826e+00   3.568114460549779e+00   3.935770110973739e-02  8.33646010e-01  -3.21939720e-01  -1.49420105e+00
C     1.781883723432486e+00   5.331291445762794e+00   7.080474719121851e+00  1.60257760e-01   6.08166110e-01   1.00307524e+00
C     4.762117132126120e-02   5.361446227527548e+00   1.766626702710501e+00 -1.12965482e+00  -1.88015092e+00  -2.11415670e-01
C     1.744486738534023e+00   3.589020900149009e+00   1.777246543936328e+00  1.75571231e+00  -2.75522066e+00   1.84318224e+00
C     9.132569418839646e-01   4.423362764222103e+00   9.065040114791907e-01 -1.33062894e+00   1.77617904e+00  -1.10382316e+00
C     2.714264525775262e+00   6.228482428430619e+00   8.690176026241684e-01 -8.76867170e-01  -1.09811916e+00  -5.73287070e-01
C     9.424946660465128e-01   6.216492651997464e+00   2.552825423989347e+00  2.98934340e-01   5.12256430e-01   4.00245560e+00
C     2.710080294968451e+00   4.360699673047338e+00   2.717264422289355e+00 -2.18179459e+00   3.67672055e+00  -2.60132446e+00
C     3.577212246324212e+00   3.497653429760875e+00   2.073164348700380e-02 -1.27947831e+00   2.27551031e+00  -3.83043340e-01
C     5.393757917967889e+00   5.263178682386406e+00   7.106405462913123e+00 -2.38364457e+00   3.16223709e+00   1.59327510e-01
C     3.528537891107572e+00   5.246530330105010e+00   1.741926569043203e+00  1.53759719e+00   2.64959923e+00   1.13621351e+00
C     5.310416638644223e+00   3.604741603278496e+00   1.754478479537147e+00  4.80597670e-01  -1.89768302e+00   1.33111704e+00
C     4.441999057973409e+00   4.418206883127365e+00   8.385141527299029e-01  1.70221390e-01   4.12891800e-01   1.50334974e+00
C     6.235814339857791e+00   6.187325372303080e+00   8.939675973465588e-01 -3.03500010e-01  -4.26248680e-01   4.54773180e-01
C     4.416860832220041e+00   6.223718292506468e+00   2.698466696260348e+00 -3.92745830e-01  -1.43415688e+00  -2.22352730e-01
C     6.181659106464226e+00   4.478570257416107e+00   2.696302252656784e+00  1.45267285e+00  -4.60878530e-01  -1.76297032e+00
C     1.803001638604660e-02   7.039527930135412e+00   3.486319049893285e+00  1.69066540e-01   4.71804510e-01   2.61800361e+00
C     1.752190136127317e+00   1.702864578314458e+00   3.588510657573345e+00 -1.17543050e-01   3.09083994e+00  -1.55282057e+00
C     7.050073132923730e+00   1.669541430419517e+00   5.269338912513124e+00  2.02440351e+00   3.21841282e+00   9.40911420e-01
C     1.786283837034265e+00   9.488329621598621e-02   5.369694556798892e+00 -5.60403470e-01  -4.54570723e+00  -3.52950570e-01
C     9.261084013071149e-01   8.440398850535600e-01   4.463432871446817e+00 -2.51593397e+00   3.71323400e-02  -2.26331619e+00
C     2.566624720484648e+00   2.632792264011072e+00   4.427831047596809e+00  3.26448326e+00   7.53778600e-01   1.78709760e+00
C     8.557937329399561e-01   2.703551990718470e+00   6.177146466532371e+00 -1.68996678e+00  -1.51025947e+00   1.06523926e+00
C     2.641853654661692e+00   9.190655183436713e-01   6.228031896604962e+00  2.77634409e+00   4.78780670e-01  -7.48440590e-01
C     3.517134275203663e+00   6.626720361155700e-02   3.632133483339309e+00  1.99748812e+00  -1.56396134e+00  -2.74857034e+00
C     5.346649619338661e+00   1.791648919006710e+00   3.510502330151882e+00 -2.37108870e-01  -9.88313430e-01  -1.10328567e+00
C     3.603206752666385e+00   1.793810945746583e+00   5.324514915394921e+00 -1.87066349e+00   9.28987800e-01  -2.16699570e-01
C     5.330867072932380e+00   9.375078232416779e-02   5.343666072196595e+00 -3.87912730e-01  -4.29373493e+00  -1.85621798e+00
C     4.494443294042340e+00   9.602190202598994e-01   4.363744494792390e+00 -2.08353289e+00  -1.33704396e+00   4.02962026e+00
C     6.194155571261733e+00   2.636087088979669e+00   4.363495131326879e+00  1.05535664e+00   8.25027280e-01   2.47705742e+00
C     4.475504323655874e+00   2.723526231775312e+00   6.251777582367072e+00 -8.01189250e-01  -2.24492564e+00  -2.40477743e+00
C     6.225745970058823e+00   8.027413713158841e-01   6.225162297477495e+00 -9.64020550e-01   4.94621011e+00  -3.85190190e-01
C     7.084989207243586e+00   3.592844876097438e+00   3.526334635516503e+00  1.15222494e+00  -1.12493682e+00   1.84889110e+00
C     1.866297308308378e+00   5.410678096330275e+00   3.557688821429930e+00 -2.21585610e+00  -2.98465143e+00   5.23384130e-01
C     4.951727197092000e-03   5.333313294408600e+00   5.404850256045268e+00 -1.37058530e-01   1.37296445e+00  -3.35486504e+00
C     1.723316363202912e+00   3.566580320779931e+00   5.390888389924648e+00  1.47748978e+00  -7.95008000e-02  -3.33844699e+00
C     9.258849835841683e-01   4.497298178734985e+00   4.509125243374367e+00 -1.68771718e+00  -3.43728530e-01  -2.34281093e+00
C     2.668392168586973e+00   6.220841229535250e+00   4.538629746637844e+00  7.09697660e-01   2.12050238e+00  -1.91260306e+00
C     8.684108987535514e-01   6.262824142202779e+00   6.183724742993371e+00  5.91957950e-01  -7.80169090e-01   2.96394724e+00
C     2.657886986218006e+00   4.405634500376276e+00   6.228943338553298e+00  3.17237260e-01   2.48208630e-01   1.05823820e+00
C     3.513909681450552e+00   3.497404492800722e+00   3.545417338208346e+00  1.05180198e+00   4.87365000e-03   2.29457822e+00
C     5.282133504555315e+00   5.286154668147223e+00   3.564850272882675e+00  1.44832510e-01   2.26702350e+00   1.53012111e+00
C     3.535319326287052e+00   5.280522309484265e+00   5.376954459904923e+00  1.49881702e+00   1.65601262e+00  -5.04672320e-01
C     5.333065281543389e+00   3.548756093228733e+00   5.319988556207410e+00  2.74946570e-01   6.07072040e-01  -2.04455020e-01
C     4.426769191425833e+00   4.426692420461537e+00   4.478840235307215e+00 -8.71298120e-01  -8.70881940e-01  -1.18066455e+00
C     6.178219056421502e+00   6.207273809785812e+00   4.494667280439097e+00  1.49771759e+00  -1.23261370e-01  -2.14069202e+00
C     4.517762474447251e+00   6.238769097888246e+00   6.241358340827581e+00 -2.17974090e+00  -7.02041720e-01  -1.13411096e+00
C     6.220107142731282e+00   4.473854174428868e+00   6.198622575120368e+00  1.11134848e+00  -2.61713205e+00   1.33476962e+00
