64
Lattice="7.10842262195238 0 0 0 7.10842262195238 0 0 0 7.10842262195238 " PBC="1 1 1" Properties=species:S:1:pos:R:3:force:R:3 Energy="-508.48655052"
C     7.105304652586189e+00   7.079649999929479e+00   7.085198052700163e+00  1.17712640e-01   6.97106200e-02  -2.21179360e-01
C     1.678955398832088e+00   1.793356646456939e+00   1.226885310521520e-02  1.81297737e+00   3.84924900e-02   3.53327200e-02
C     7.060041060711077e+00   1.778971473769298e+00   1.802148130300676e+00  2.07386928e+00  -2.57272704e+00  -8.97370840e-01
C     1.878359093062673e+00   7.019923611391714e+00   1.715908818159063e+00 -1.66931866e+00   3.95604031e+00   1.84625766e+00
C     8.742393787965942e-01   8.267425337869568e-01   8.782045991024826e-01  1.94698390e-01   1.07982671e+00   4.99678100e-02
C     2.634192978688344e+00   2.649178599834697e+00   8.930265843601232e-01 -4.28796940e-01   1.05786272e+00  -5.83239370e-01
C     8.724548092978431e-01   2.598249097541861e+00   2.638492863531182e+00  5.28183790e-01   2.56960125e+00   3.70392930e-01
C     2.692242205993145e+00   8.855630249460280e-01   2.608346398620893e+00  2.35356190e-01  -9.04584550e-01   1.63609183e+00
C     3.578351797554425e+00   1.315093015970838e-01   7.102460004022118e+00 -4.19684000e-02  -1.87497344e+00   7.88921100e-02
C     5.393318404197295e+00   1.834654520436579e+00   7.096105216368290e+00 -3.84423110e-01  -1.45961591e+00   6.35351940e-01
C     3.557870370543645e+00   1.825536902163036e+00   1.746569790698587e+00 -4.98758810e-01  -1.42275694e+00   1.46360522e+00
C     5.292107261249210e+00   7.054740594300248e+00   1.734869042729162e+00  6.35192100e-01   1.75243062e+00   3.77238480e-01
C     4.473667365082415e+00   9.596568151148835e-01   8.465130474515103e-01  2.42417280e-01  -1.85642430e-01   1.19752664e+00
C     6.258461987577789e+00   2.695180259230443e+00   9.838581507669355e-01 -1.52743904e+00  -3.86552610e-01  -2.82293775e+00
C     4.364820354555927e+00   2.651254827913546e+00   2.750898705842373e+00  2.13676944e+00   2.63121900e-02  -1.49182802e+00
C     6.215603885917286e+00   8.265617665997301e-01   2.603304963130336e+00 -1.10883245e+00  -9.35848400e-02   1.66320322e+00
C     7.083331309835923e+00   3.586493998076052e+00   5.274819222016239e-02 -7.08157520e-01   5.16509820e-01  -2.27304292e+00
C     1.852188440007976e+00   5.411020793384785e+00   7.094212385593036e+00 -1.14196063e+00  -2.44713179e+00  -1.64652194e+00
C     7.139415342623200e-02   5.393159886372869e+00   1.782680222187056e+00 -1.90832359e+00  -2.22504659e+00  -8.43639600e-02
C     1.720061771906345e+00   3.557275466654577e+00   1.764587793850406e+00  1.49307635e+00  -2.90228200e-02   3.96126230e-01
C     8.471742018393966e-01   4.484949213706843e+00   8.288595642116452e-01  2.80035800e+00   6.11497580e-01   2.42814755e+00
C     2.817552323307553e+00   6.295575417497941e+00   8.622239409577820e-01 -4.20749588e+00  -2.79575684e+00  -4.25117190e-01
C     1.012024209135293e+00   6.184685161973560e+00   2.621885100342944e+00 -1.92861783e+00   5.56935280e-01   1.68517679e+00
C     2.640226963229331e+00   4.446005293877815e+00   2.749488536963017e+00 -6.75944260e-01  -6.69792270e-01  -1.89237039e+00
C     3.599478029581065e+00   3.481899245960847e+00   7.106166051239280e+00 -3.10543182e+00   8.88960600e-01  -6.45626480e-01
C     5.262510348491674e+00   5.291331092583333e+00   1.002343745958698e-01  1.73672320e+00   1.25114556e+00  -3.01868582e+00
C     3.507031713891893e+00   5.294981267598703e+00   1.771275326767076e+00  6.88015420e-01  -1.01544797e+00   1.23480420e-01
C     5.389730356795624e+00   3.510572205946236e+00   1.867345516307924e+00 -2.92302107e+00   2.06730026e+00   1.06355360e-01
C     4.354463809303943e+00   4.346084613972166e+00   9.075023183519436e-01  3.69516809e+00   1.84853799e+00   1.36856667e+00
C     6.224680701844989e+00   6.217561403338380e+00   9.106874603595132e-01 -5.16520230e-01  -1.06681162e+00  -7.33266260e-01
C     4.366266705306418e+00   6.134428898387064e+00   2.602412927175752e+00  3.13155746e+00   2.62746290e+00   2.33161351e+00
C     6.281299288013289e+00   4.500213271767221e+00   2.755173995542946e+00 -7.00699000e-01  -1.86378474e+00  -3.28697740e+00
C     2.311196988553700e-02   7.026899604098303e+00   3.514923413600391e+00 -2.70771310e-01   2.02919269e+00  -3.02969800e-01
C     1.757011281600879e+00   1.729300802038238e+00   3.488290144401585e+00  1.02414320e+00   1.15735666e+00   4.53554240e-01
C     7.050174925535648e+00   1.803156460049324e+00   5.305152709525661e+00  4.87028350e-01  -1.51478665e+00  -9.30726380e-01
C     1.803350875407981e+00   1.093619446610808e-01   5.322763257892902e+00  3.93342430e-01  -2.22665185e+00   7.50548700e-02
C     9.065849053286064e-01   8.863158779857121e-01   4.353122805376680e+00 -1.25637323e+00  -4.23493000e-01   2.31023209e+00
C     2.538840739832116e+00   2.674832754901824e+00   4.487054941739564e+00  3.44914020e+00  -1.32166609e+00  -6.76934780e-01
C     7.602954870831138e-01   2.686514665551306e+00   6.232282093573686e+00  1.69614148e+00  -9.71804670e-01   5.34788650e-01
C     2.651960623195486e+00   9.838587905249714e-01   6.277738039364896e+00  2.13927180e-01  -7.30094240e-01  -2.25753237e+00
C     3.602720749811857e+00   7.071583006519171e+00   3.624014456275423e+00 -1.50542915e+00   3.05649870e-01  -3.30296373e+00
C     5.304640405507437e+00   1.688153057944332e+00   3.509831721561911e+00  1.20244573e+00   2.23716634e+00   1.13730900e-02
C     3.637749776967144e+00   1.811149383695930e+00   5.356991805576952e+00 -3.50896414e+00  -9.17804430e-01  -9.68890850e-01
C     5.328683294419290e+00   7.077826191937865e+00   5.350313300357009e+00  2.18602410e-01   2.72946140e-01  -5.52327180e-01
C     4.498380080657749e+00   8.585940960311051e-01   4.402465423403827e+00 -1.19320392e+00  -7.43849200e-02   2.73647510e+00
C     6.211021725612207e+00   2.667557639771385e+00   4.320601061047919e+00 -1.36304470e-01  -5.49424000e-01   3.34471845e+00
C     4.499557733033204e+00   2.677423703862588e+00   6.201918750689261e+00  6.00973080e-01   7.88446760e-01  -3.81098900e-01
C     6.215668927984258e+00   8.437370662499480e-01   6.209024898614023e+00  5.31297370e-01   1.90027938e+00  -1.89238730e-01
C     7.597411012029801e-02   3.553500752074905e+00   3.567726340674727e+00 -2.36302117e+00   1.55539940e-01  -1.07015042e+00
C     1.797399632906290e+00   5.336979107953734e+00   3.619696373870679e+00  8.04024140e-01   6.65284300e-02  -3.32083460e-01
C     9.762636542081799e-03   5.389225303368472e+00   5.303505616920381e+00 -3.18889940e-01  -2.26863005e+00   3.97729130e-01
C     1.652259291177321e+00   3.503707104632519e+00   5.351228651937786e+00  2.42486812e+00   2.15969598e+00   8.43488050e-01
C     8.780957691521704e-01   4.460233796930911e+00   4.471143448546957e+00  2.98116110e-01  -5.83182910e-01  -4.10920500e-01
C     2.743927262526260e+00   6.238314301009019e+00   4.552620188617396e+00 -2.18914132e+00   4.19627920e-01  -2.34566042e+00
C     9.344043570100121e-01   6.241360402270141e+00   6.123046963172147e+00 -4.27427690e-01   1.46300023e+00   2.96696781e+00
C     2.657084089883078e+00   4.385457456022084e+00   6.199097133414479e+00  6.48429550e-01   1.04798355e+00   1.53159452e+00
C     3.494264062771433e+00   3.563993423620061e+00   3.692902535306974e+00 -9.76591000e-03  -1.46453560e-01  -3.73344751e+00
C     5.278565787242337e+00   5.328401161125502e+00   3.531045031765646e+00  1.60555670e+00  -2.63657290e-01  -1.72581680e-01
C     3.591039336751958e+00   5.328518023593375e+00   5.401891517298146e+00 -1.15996408e+00   1.20860650e-01  -1.05661041e+00
C     5.351171002630339e+00   3.595120140009647e+00   5.247832024455183e+00  3.38111170e-01  -3.48082610e-01   1.12511940e+00
C     4.445280803444385e+00   4.489800356723862e+00   4.410495381932284e+00 -8.74035420e-01  -1.52109001e+00   2.73632035e+00
C     6.172698157825228e+00   6.155477648607146e+00   4.433578349453532e+00  1.20756234e+00   2.76968379e+00  -4.20482760e-01
C     4.400374836311285e+00   6.278847664135879e+00   6.272454064494545e+00  1.77637436e+00  -1.73283265e+00  -1.95287730e-01
C     6.238063800195890e+00   4.494200328157189e+00   6.167537158666203e+00 -1.78226325e+00  -1.23010791e+00   2.48430945e+00
