76
Lattice="10.7446858958278 0 0 5.37234294791388 9.3051709414712 0 0 0 30 " PBC="1 1 1" Properties=species:S:1:pos:R:3:force:R:3 Energy="-611.51481436"
C     1.667134182323805e-01   1.421876645486700e-02   1.014813000000000e-01 -2.64232163e+00   2.82884205e+00   3.92806600e-02
C     1.256601943350560e+01   8.459440144260835e+00   9.411000000000000e-02  5.43116340e-01   3.04645917e+00   4.19373610e-01
C     1.400109381157156e+01   8.379783693687513e+00   1.562751000000000e-01 -2.11440699e+00  -3.01304997e+00  -5.17555200e-01
C     1.454326416155059e+01   7.040211378216822e+00   2.529540000000000e-02 -9.31783850e-01   1.41404021e+00  -1.15529850e-01
C     8.341179282292520e+00   9.038831265425406e+00  -3.402090000000157e-02 -8.07540190e-01   9.96503740e-01   1.78228740e-01
C     9.750090672532554e+00   8.907732293930804e+00  -3.571800000000280e-02 -1.34635980e-01  -2.15739868e+00  -1.47610510e-01
C     1.029519673931661e+01   7.568983393036596e+00  -6.309810000000127e-02  1.77368880e-01   4.99882900e-02  -3.39915660e-01
C     1.170986486364472e+01   7.357858183475517e+00  -2.320079999999791e-02 -1.05458080e+00   7.86473100e-02   3.05010790e-01
C     1.223226268146028e+01   6.044287958524434e+00  -8.081070000000068e-02  1.07347465e+00   8.73486200e-02  -1.18934844e+00
C     1.365814610893081e+01   5.929821142619699e+00  -1.289850000000001e-01  4.79271360e-01  -8.63372110e-01   2.68598400e-02
C     6.064760594516520e+00   8.066654548920187e+00  -3.244589999999903e-02 -2.68024700e-01  -8.55944180e-01   3.89360640e-01
C     7.456669916128972e+00   7.928180112835125e+00  -9.035940000000053e-02  1.91009642e+00  -1.13105475e+00   1.09090200e-01
C     8.052020283118612e+00   6.627014239057319e+00  -1.435983000000007e-01 -2.30198816e+00  -1.21872947e+00   1.69434170e-01
C     9.434243539009360e+00   6.414333391018491e+00  -1.663029000000016e-01  3.10430900e-01   1.97577384e+00   4.77837660e-01
C     9.959651802920385e+00   5.131477302099322e+00  -1.683374999999998e-01  1.81992927e+00  -2.33614113e+00  -8.17437590e-01
C     1.139712815551929e+01   4.909816126638010e+00  -2.965151999999982e-01 -6.58992610e-01   4.12730440e-01   1.49396405e+00
C     1.197018630777848e+01   3.596746892090337e+00  -2.643872999999992e-01  3.67058570e-01   5.03789820e-01  -9.61469800e-02
C     5.189861382868793e+00   6.940060288648149e+00  -4.592879999999866e-02  7.65813770e-01  -5.08179380e-01   1.73222960e-01
C     5.766663467206408e+00   5.659144420921680e+00  -8.461920000000234e-02 -1.20223651e+00  -1.24506692e+00  -8.69594970e-01
C     7.145926884472285e+00   5.462945636065455e+00  -1.134926999999983e-01  2.37162051e+00   3.56587960e-01  -1.85020110e-01
C     7.713024368505021e+00   4.139604888575663e+00  -1.123718999999994e-01  1.33706430e+00   4.50723780e-01   2.22989260e-01
C     9.149183637506303e+00   3.953504540482073e+00  -1.256843999999973e-01 -3.92879100e-01   7.10351770e-01   3.02176090e-01
C     9.757071118897779e+00   2.660030321003271e+00   6.582000000000000e-04 -2.32930381e+00  -1.11523326e+00  -4.33924300e-02
C     1.113551444801234e+01   2.438763498686396e+00  -7.407390000000191e-02  1.94818190e-01   3.03296810e+00  -1.79880100e-01
C     3.500188072932557e+00   4.622108150568509e+00  -3.090720000000005e-01 -3.60028560e-01   8.87916830e-01   5.08930320e-01
C     4.903480852021765e+00   4.523397315357928e+00  -2.406942000000001e-01  1.77524666e+00  -2.56268709e+00   4.51557100e-01
C     5.551076287178422e+00   3.133499564737308e+00  -1.813403999999998e-01 -3.41524039e+00   2.54606166e+00   4.06851230e-01
C     6.906226211730372e+00   2.995261479994121e+00  -4.224089999999947e-02  9.76191500e-01  -1.00136430e+00  -2.22239020e-01
C     7.474195036066168e+00   1.668083931370639e+00   8.176169999999999e-02  2.78196240e-01   2.68801310e-01   3.20490110e-01
C     8.875966421355365e+00   1.489074774895295e+00   1.477299000000000e-01  8.87289290e-01   1.30537412e+00  -4.64319390e-01
C     9.425931235103402e+00   1.797603629253302e-01   1.696689000000000e-01  2.93319013e+00   1.52996726e+00   2.93888500e-02
C     2.652074235041511e+00   3.477496566960476e+00  -3.185177999999986e-01  1.86277760e-01  -9.63859820e-01   5.03399250e-01
C     3.257555551472541e+00   2.169842383589626e+00  -1.656809999999993e-01 -2.71756000e-01   9.89044190e-01   4.28246120e-01
C     4.678129975916449e+00   2.021040138278257e+00  -7.006379999999979e-02 -3.60392100e-01   7.98475100e-02  -9.91644710e-01
C     5.222196171999105e+00   7.170021304381103e-01  -2.664479999999969e-02  1.14259586e+00   2.91115200e-02   8.38963330e-01
C     6.648597385883154e+00   5.257456940749572e-01   1.169745000000000e-01 -9.89698010e-01  -1.24183723e+00  -8.25371360e-01
C     9.666340627327281e-01   1.211941008978591e+00   4.892190000000000e-02  1.60698976e+00  -3.12160736e+00   6.83548000e-03
C     2.414161424309928e+00   1.050618842270871e+00   1.964820000000000e-02 -9.12136050e-01  -2.57634980e-01  -8.54080670e-01
C     1.601927976842934e+01   9.249987833412552e+00   3.705945000000000e+00 -7.56736770e-01  -3.49982800e-02  -7.04478480e-01
C     1.179195254477098e+01   8.783149268386941e+00   3.649161600000000e+00 -1.26206690e+00  -1.77947853e+00   1.55261900e-01
C     1.319179869724061e+01   8.934130877784167e+00   3.702579300000000e+00 -7.28694330e-01   8.22854470e-01  -4.20283800e-02
C     1.401860104160673e+01   7.802884032042128e+00   3.658062000000000e+00  7.53948120e-01  -1.22260167e+00  -7.37704420e-01
C     7.539295637401671e+00   8.252513241724467e+00   3.506913000000000e+00 -1.05930733e+00   7.19554440e-01  -9.18281800e-02
C     8.938400406544206e+00   8.454203938469480e+00   3.488548500000000e+00  6.05286430e-01  -1.36923502e+00  -4.95970800e-02
C     9.799192651456675e+00   7.283354936568766e+00   3.450739800000000e+00 -3.40537810e-01   1.88268081e+00   5.02148080e-01
C     1.120628238764922e+01   7.445607248163648e+00   3.593421900000000e+00  3.16371140e-01   2.29121130e-01  -1.13535475e+00
C     1.202911661206562e+01   6.297912582268065e+00   3.386520900000000e+00  8.21907620e-01   4.42882900e-02   3.45117020e-01
C     1.347374758238819e+01   6.489113745915835e+00   3.415797900000000e+00 -1.45927754e+00   2.79725090e-01   3.52764840e-01
C     4.692514585335362e+00   7.956259582767088e+00   3.633988200000000e+00  1.21152820e-01  -5.37108920e-01   1.85695600e-01
C     5.545150539181143e+00   6.807966501328353e+00   3.479279100000000e+00 -1.24429395e+00  -3.83445960e-01  -2.53709850e-01
C     6.934870469871182e+00   6.967435729346792e+00   3.440447400000000e+00  1.86142786e+00  -8.01286240e-01  -2.95714760e-01
C     7.827307802526043e+00   5.810233225888135e+00   3.303576300000000e+00 -1.87448451e+00   1.90939673e+00   5.96407900e-01
C     9.206666095368417e+00   6.028426271088400e+00   3.350152800000000e+00  1.12400077e+00  -2.51145445e+00  -2.39118800e-01
C     1.005193103351651e+01   4.836793890738069e+00   3.321933300000000e+00 -2.16498710e-01   2.09309520e-01   6.43796110e-01
C     1.145175139873998e+01   4.964002835521202e+00   3.262324200000000e+00  1.67416920e-01   2.26155237e+00   5.03577320e-01
C     1.231347450951540e+01   3.849398288005353e+00   3.285212400000000e+00 -2.49131895e+00   6.89271450e-01   1.09784360e-01
C     3.532312642283237e+00   5.333438779318689e+00   3.275183100000000e+00  1.11530072e+00   1.42801000e+00   2.41518800e-01
C     4.975008709568931e+00   5.491380656579035e+00   3.311870400000000e+00 -7.40638840e-01   5.54499650e-01  -1.35815210e-01
C     5.828961317224897e+00   4.364522780814267e+00   3.224776500000000e+00  2.10218310e-01   5.86237960e-01   8.86028990e-01
C     7.237592217439513e+00   4.538564464835001e+00   3.303001800000000e+00  8.42042230e-01  -1.23033782e+00  -1.75399470e-01
C     8.082835505045516e+00   3.384392004189537e+00   3.440625900000000e+00 -1.47252550e-01  -1.11281790e-01   1.96054730e-01
C     9.509715985644135e+00   3.526438509295047e+00   3.520630500000000e+00 -1.35678707e+00   7.52452030e-01  -9.61706710e-01
C     1.033808463659733e+01   2.385780320612582e+00   3.597102300000000e+00  3.70392520e-01   2.01143850e-01  -3.26306940e-01
C     1.174065096747284e+01   2.582822619214518e+00   3.463036200000000e+00  8.41742890e-01  -2.10051481e+00   1.52508400e-02
C     2.900468271974825e+00   4.086601890487747e+00   3.242462700000000e+00  4.53786517e+00  -2.87523302e+00   5.33812830e-01
C     3.811971458801512e+00   2.910649374533282e+00   3.379815000000000e+00  1.02137429e+00   1.37154175e+00  -6.16732050e-01
C     5.278517505379437e+00   3.086766111673637e+00   3.355380600000000e+00 -1.72000857e+00  -2.19090433e+00  -2.82845800e-01
C     6.113979905410670e+00   1.888845203750344e+00   3.449633100000000e+00 -1.53875218e+00   1.10197647e+00   5.28583640e-01
C     7.499677777827761e+00   2.075809536965712e+00   3.527247000000000e+00  8.06667250e-01   3.67406660e-01   4.61332800e-02
C     8.347811762004870e+00   9.547194714081024e-01   3.681807900000000e+00  1.10353619e+00  -9.26505640e-01  -1.06542220e-01
C     9.771476626730767e+00   1.081621903860472e+00   3.679123500000000e+00  2.70434320e-01   5.31334580e-01   3.03453900e-01
C     1.878941865363037e+00   1.437982314504780e+00   3.484582200000000e+00 -1.21889889e+00  -1.01192352e+00   2.26482320e-01
C     3.287351156430965e+00   1.607114869492699e+00   3.454156800000000e+00  8.89228200e-02  -7.30326100e-01  -6.25049600e-02
C     4.147157254071534e+00   4.292555379092085e-01   3.500149500000000e+00 -1.42651820e+00   8.90113420e-01   2.43144740e-01
C     5.529125108778441e+00   5.764512454577864e-01   3.588533700000000e+00  1.50980891e+00   1.29060535e+00  -6.19411640e-01
C     1.299628801654021e+00   8.392380196640700e-02   3.561958200000000e+00  1.07515985e+00   1.70335325e+00   2.61575280e-01
