72
Lattice="7.395 0 0 3.6975 6.40425786098592 0 0 0 13.6 " PBC="1 1 1" Properties=species:S:1:pos:R:3:force:R:3 Energy="-568.35038986"
C     3.638894070375000e+00   6.247056192737561e+00   1.404414880000000e-01  3.03223879e+00  -5.32637162e+00  -1.22107217e+00
C     1.243357918275000e+00   3.721097325259314e-01   1.353776340800000e+01 -1.65101348e+00   3.01801271e+00   1.03424266e+00
C     1.389689106000000e+00   1.048078445180567e+00   3.246501832000000e+00  2.22911510e+00   5.62970490e-01   7.44765350e-01
C     2.640775316925000e+00   1.707428364858817e+00   2.974622192000000e+00  3.36437558e+00   2.97863624e+00   2.13876309e+00
C     6.135166354499999e+00   6.123007703309297e+00   2.294570240000000e-01  1.34059086e+00   1.47982177e+00   2.21775850e-01
C     3.674557234349999e+00   4.901582008503180e-01   2.984186800000000e-01 -2.22241184e+00  -7.83716380e-01  -1.85308582e+00
C     3.961962911025000e+00   1.144057584749079e+00   3.304888808000000e+00 -3.04534490e+00  -3.61758491e+00   9.65439950e-01
C     5.175621104250000e+00   1.813460011819857e+00   3.637232960000000e+00 -1.99840278e+00  -4.96847310e-01  -1.52714254e+00
C     8.558071882275000e+00   6.141312032911856e+00   3.775297440000000e-01  3.30769173e+00   2.36371335e+00  -1.47472886e+00
C     6.139436375399999e+00   4.145136687111420e-01   2.294741600000000e-01 -2.85119699e+00   4.10367872e+00   2.00841342e+00
C     6.367830506700000e+00   1.085355324650797e+00   3.808335104000000e+00  1.61144067e+00  -6.21182460e-01  -1.20414589e+00
C     7.613027006850000e+00   1.791212388525160e+00   3.407933016000000e+00 -2.41112186e+00  -2.11258528e+00   1.04270077e+00
C     1.259257759875000e+00   1.776709114047668e+00   1.343119176800000e+01 -2.27303017e+00   4.15627458e+00   1.65528026e+00
C     2.454200945925000e+00   2.562310844028335e+00   1.320913110400000e+01 -1.89599786e+00   1.92117795e+00   2.24654061e+00
C     2.753180906850000e+00   3.213608690299207e+00   3.117659376000000e+00 -3.69736812e+00   4.24868790e-01   1.03578657e+00
C     3.828772897124999e+00   3.974411276611175e+00   3.620262744000000e+00  4.18652766e+00  -1.96857500e+00  -9.45480340e-01
C     3.618931970399999e+00   1.876419246160259e+00   1.349434282400000e+01  4.17468921e+00  -2.28141660e-01   2.38388031e+00
C     4.869162764700000e+00   2.580461087186783e+00   3.308009600000000e-01 -3.61334180e-01   7.49715380e-01  -1.17484399e+00
C     5.083723993875000e+00   3.193503355301259e+00   3.548170504000000e+00  2.77780418e+00   3.52930036e+00   5.99962620e-01
C     6.413489344275000e+00   3.920394051350377e+00   3.475927032000000e+00 -3.02511395e+00  -9.66861810e-01   9.53554460e-01
C     6.135121245000000e+00   1.845550467104744e+00   5.553666080000000e-01  1.27758580e-01   1.76518828e+00  -2.67029091e+00
C     7.365670431674999e+00   2.640531809104589e+00   4.088425200000000e-01  1.12061199e+00  -1.02487294e+00  -7.81756460e-01
C     7.581816520274999e+00   3.150691916188417e+00   3.260132568000000e+00  2.68032130e+00   4.13903727e+00   1.42270670e-01
C     8.925114831599998e+00   3.951939568333957e+00   3.177379968000000e+00 -3.16065696e+00  -1.45747750e-01   1.43483040e+00
C     2.425119331950000e+00   4.059984009497817e+00   1.344934926400000e+01  1.14336274e+00  -1.25313621e+00   3.13145570e-01
C     3.679944713700000e+00   4.783600720843745e+00   6.471696000000000e-03 -9.17569030e-01  -1.11978215e+00   5.33163780e-01
C     3.920137530525000e+00   5.379742408635996e+00   3.947994184000000e+00 -1.15393620e+00  -9.31155990e-01  -2.31824713e+00
C     5.157357229050000e+00   6.146068667352214e+00   3.719293864000000e+00 -2.77747830e-01  -3.90708255e+00  -7.05901970e-01
C     4.880042806350000e+00   4.027581923025461e+00   2.655848800000000e-01  1.37226761e+00  -4.45459600e-02   8.69755500e-01
C     6.156707915549999e+00   4.790769775177386e+00   5.783353760000000e-01 -1.98541950e+00  -1.32662309e+00  -1.46347999e+00
C     6.389118788999999e+00   5.334351654670039e+00   3.580037888000000e+00  8.27912900e-02   1.60015083e+00  -7.24568970e-01
C     7.626023275650000e+00   6.057447571766792e+00   3.464400216000000e+00 -2.24916552e+00   3.30180529e+00  -2.29655390e-01
C     7.421700128175000e+00   4.215162187446810e+00   6.588097040000001e-01 -1.24454860e-01  -7.42714613e+00  -3.09815869e+00
C     8.644339216124999e+00   4.772408447679873e+00   2.359069600000000e-01 -1.40211309e+00  -8.03413230e-01   6.31717460e-01
C     8.831790375299999e+00   5.457254358324569e+00   3.543878072000000e+00  1.62852608e+00  -7.12461249e+00  -7.77745350e-01
C     1.003061686072500e+01   5.998345429807732e+00   3.893155719999999e+00  2.39114219e+00   5.04126712e+00  -9.46966980e-01
C     7.397373425250000e+00   2.097336810829260e-01   6.708465336000000e+00 -2.54824919e+00   1.83230399e+00  -2.03428800e-01
C     1.190638593525000e+00   9.473572088370391e-01   6.504438408000000e+00  1.05262639e+00  -1.11960942e+00   1.02694086e+00
C     1.107981128925000e+00   3.850363427608698e-01   1.019037623200000e+01 -1.67832485e+00  -1.15874021e+00   8.23450700e-01
C     2.277702964950000e+00   1.077431464485777e+00   9.748123408000000e+00 -8.46952900e-02  -1.91203820e+00   1.48185035e+00
C     2.443495019550000e+00   2.164334314005864e-01   6.723724263999999e+00 -1.65333359e+00   3.51277634e+00  -9.53616120e-01
C     3.619617006225000e+00   9.603773212367334e-01   6.719838608000000e+00  1.40722243e+00   4.84842880e-01  -5.82948970e-01
C     3.486031914450000e+00   3.078056680775076e-01   9.798439464000001e+00  3.29714236e+00   1.31206934e+00   1.24228451e+00
C     4.858195129275000e+00   1.082954432421662e+00   9.976281224000001e+00 -3.30125493e+00  -1.34120393e+00   6.60268380e-01
C     4.865039978250000e+00   2.844289741220928e-01   6.790774440000000e+00 -9.82052970e-01  -2.36553303e+00  -3.78585100e-02
C     6.080256519824999e+00   9.247697756202906e-01   6.730377927999999e+00  3.39961248e+00   1.79127072e+00  -6.50051160e-01
C     6.030914565524999e+00   3.109800665709738e-01   1.038234580800000e+01 -1.97843499e+00   8.69887070e-01  -1.15007491e+00
C     7.219740422699999e+00   1.077379205741639e+00   1.050021619200000e+01  3.21165682e+00  -7.91787970e-01  -2.37546449e+00
C     8.623891227674999e+00   2.350027755976501e+00   6.323419144000000e+00 -1.51444838e+00  -8.55301000e-02   9.89201720e-01
C     2.446250951175000e+00   3.044936612954036e+00   6.326657848000000e+00 -2.23298150e-01   3.14643953e+00   1.90702915e+00
C     2.253978584775000e+00   2.454787965624595e+00   9.671991424000000e+00  9.37546630e-01   3.93202735e+00   1.52643541e+00
C     3.538363038675000e+00   3.265621446892405e+00   9.756515832000000e+00 -5.23850700e-02  -2.74213142e+00   1.15731468e+00
C     3.650628308475000e+00   2.374445782259952e+00   6.534160392000000e+00 -9.94240000e-01  -2.17817149e+00  -7.52202000e-02
C     4.860415551975000e+00   3.002591147643087e+00   6.580403383999999e+00  2.76355298e+00   5.38817329e+00   8.77228140e-01
C     4.757768219174999e+00   2.552766834709892e+00   1.001543331200000e+01  1.93130425e+00  -2.62485701e+00   1.11095560e-01
C     6.013483441275000e+00   3.192023459394970e+00   1.035247667200000e+01 -8.88053610e-01   1.29621740e+00  -1.29372403e+00
C     6.111056251125000e+00   2.405059671852638e+00   6.591876072000000e+00  6.85154630e-01  -4.25507109e+00   4.59005670e-01
C     7.376338791449999e+00   3.046489709527664e+00   6.482982776000000e+00 -6.25165480e-01   9.53343380e-01   4.72798950e-01
C     7.274495701875000e+00   2.501321687490826e+00   1.032555560800000e+01 -3.34500562e+00  -1.55856768e+00   4.85725750e-01
C     8.425240821674999e+00   3.183574065829958e+00   1.002214164800000e+01  2.84234712e+00  -6.11799680e-01  -1.05180329e+00
C     9.870439829624999e+00   4.502919710549060e+00   6.617985080000000e+00 -2.86434950e+00  -2.19031110e-01  -7.16807310e-01
C     3.697721295375000e+00   5.212401968627653e+00   6.705151016000000e+00  7.89958270e-01  -1.09003498e+00   4.66690710e-01
C     3.636249951150000e+00   4.602792382726138e+00   1.012685512000000e+01 -4.34194653e+00   7.53510320e-01   2.81878420e-01
C     4.844281214925000e+00   5.292347984601078e+00   1.032253491200000e+01 -3.48076261e+00   4.35581184e+00  -1.03064616e+00
C     4.969414413299999e+00   4.510120850214580e+00   6.716184968000000e+00 -3.61609275e+00  -1.27083987e+00  -7.41149090e-01
C     6.128432874225000e+00   5.276674203914514e+00   6.773371880000000e+00  1.19472532e+00  -5.57182214e+00  -1.52664380e-01
C     5.997232041375000e+00   4.650859219881474e+00   1.026968272800000e+01  1.89638535e+00  -4.28031795e+00   1.49469440e-01
C     7.170956458125000e+00   5.311898518740614e+00   1.008801760000000e+01  3.67904220e+00   1.93523618e+00  -9.35847780e-01
C     7.340962997175000e+00   4.443770881550201e+00   6.684548376000000e+00  1.07166651e+00   3.02142672e+00  -2.08762400e-01
C     8.534821262774999e+00   5.242423336283133e+00   6.716633904000000e+00  2.81152845e+00  -1.94682299e+00  -1.49139450e-01
C     8.446357170224999e+00   4.588688093513325e+00   1.001555408000000e+01  3.90060740e-01   1.57844317e+00   1.34772603e+00
C     9.702001363350000e+00   5.268795878022877e+00   1.024144083200000e+01  9.36010790e-01   1.02215338e+00  -1.01034161e+00
