72
Lattice="7.395 0 0 3.6975 6.40425786098592 0 0 0 13.6 " PBC="1 1 1" Properties=species:S:1:pos:R:3:force:R:3 Energy="-566.30479629"
C     3.619907001150000e+00   6.159475981182124e+00   1.352117181600000e+01  1.27857159e+00   1.84228216e+00   1.45268576e+00
C     1.146968678175000e+00   5.256861415415610e-01   1.355389736000000e+01  1.64426392e+00  -1.27746525e+00   2.03183230e-01
C     1.447875665175000e+00   9.852600404705059e-01   3.449847264000000e+00 -1.91947255e+00   3.00294782e+00   2.63348040e-01
C     2.648988425775000e+00   1.798953022872806e+00   3.333969688000000e+00  2.35770787e+00  -7.06849825e+00   1.45710595e+00
C     6.083882621100000e+00   6.182819885337295e+00   1.127966320000000e-01  1.80977028e+00   2.06946000e-02  -8.05971660e-01
C     3.680526182550000e+00   5.020126102343352e-01   8.246087999999999e-03 -6.80888960e-01  -9.81393000e-01   1.16872988e+00
C     3.963328508700000e+00   1.102962422700138e+00   3.561366720000000e+00 -3.15152513e+00  -2.71864761e+00  -8.27903300e-01
C     5.157432547125000e+00   1.844187833159872e+00   3.640045576000000e+00 -1.25074377e+00  -3.42455142e+00   2.31785990e-01
C     8.645141462700000e+00   6.252126251557587e+00   8.787816800000001e-02  2.62403160e-01  -2.14345053e+00   1.92913310e-01
C     6.198688295249999e+00   6.414199829901864e-01   1.735947520000000e-01 -3.27764288e+00  -5.52625916e+00  -1.76620449e+00
C     6.295239190049999e+00   1.104483946282517e+00   3.719606392000000e+00  4.72299151e+00  -2.82400247e+00  -8.24795850e-01
C     7.613436800774999e+00   1.788204756906368e+00   3.488912992000000e+00 -2.79551315e+00  -1.41159609e+00   6.78503310e-01
C     1.179072665625000e+00   2.034623179777789e+00   1.351477818400000e+01  1.75575157e+00  -6.94286042e+00   3.53168710e-01
C     2.434625493525000e+00   2.599243302510855e+00   1.333944290400000e+01  6.99339100e-01   4.04528130e-01   1.16636943e+00
C     2.665235536575000e+00   3.127205581338439e+00   3.433264512000000e+00  1.50337310e-01   1.52472603e+00  -2.15356560e-01
C     3.877801932000000e+00   3.775302707616039e+00   3.601758856000000e+00  2.22525401e+00   4.57769058e+00   1.51943963e+00
C     3.661331794500000e+00   1.914942138039731e+00   1.358621150400000e+01  1.85023739e+00   6.83315530e-01  -7.66380150e-01
C     4.949878819949999e+00   2.698207979008542e+00   1.675541760000000e-01 -3.28926470e+00  -7.60647110e-01   2.64936400e-02
C     5.181561137999999e+00   3.172231804947005e+00   3.726542528000000e+00 -1.49485550e+00   6.01637732e+00  -1.57973058e+00
C     6.405484293750000e+00   4.110448921008831e+00   3.599251967999999e+00 -2.78685954e+00  -1.45183161e+01   1.09604120e-01
C     6.157677437025000e+00   2.027377274349827e+00   2.739922640000000e-01 -9.79389560e-01  -3.27333765e+00   1.93277130e-01
C     7.408428691425000e+00   2.568337763015224e+00   3.243160720000000e-01 -6.85531890e-01   3.01162670e+00  -1.48060231e+00
C     7.514905081275000e+00   3.234540046475938e+00   3.384019048000000e+00  4.79109426e+00  -2.00626700e-01   1.08629121e+00
C     8.874038306099999e+00   3.801198452358107e+00   3.430652360000000e+00 -3.89336096e+00   3.62604481e+00  -1.17182740e-01
C     2.473724633325000e+00   3.996279895925718e+00   1.333856529600000e+01 -1.02795745e+00  -3.10826570e-01   1.36445501e+00
C     3.661904500275000e+00   4.662536743663399e+00   1.349972692800000e+01 -5.96110000e-03   6.08779760e+00   9.69304200e-02
C     3.848668996725000e+00   5.298726753514795e+00   3.806197184000000e+00 -1.72497167e+00  -1.31211058e+00  -1.58382881e+00
C     5.059522266449999e+00   5.986666561131656e+00   3.684657792000000e+00 -5.17524860e-01   2.61812414e+00  -4.36337860e-01
C     4.876539573000000e+00   4.142075195684026e+00   2.167504080000000e-01  7.87367190e-01  -4.65497900e+00  -8.05706170e-01
C     6.123524664824999e+00   4.712657618442174e+00   3.067485440000000e-01  1.48165863e+00   3.29306493e+00  -8.88467200e-01
C     6.271336960125000e+00   5.349739485243154e+00   3.596671776000000e+00  3.38637660e+00   5.69040239e+00   3.54554500e-02
C     7.611397888350000e+00   5.863726840866695e+00   3.578802600000000e+00 -2.35824824e+00   8.55939410e+00  -4.49992830e-01
C     7.348420521900000e+00   3.907683840988528e+00   2.411339840000000e-01  2.50800422e+00   7.26337294e+00   9.32944100e-02
C     8.697408324374999e+00   4.668484249852824e+00   4.829563999999999e-02 -4.19233026e+00   3.36427741e+00  -3.00438680e-01
C     8.818306332300001e+00   5.273110938883788e+00   3.560495912000000e+00  6.18270750e-01  -3.07939252e+00   2.96727740e-01
C     9.957135592800000e+00   6.042870328111016e+00   3.746936272000000e+00  3.66491937e+00   8.28136700e-01  -2.83628600e-01
C     7.336681772850000e+00   2.284982846978832e-01   7.074110856000000e+00  1.52893233e+00  -3.89951010e-01  -9.60444320e-01
C     1.152249521625000e+00   9.281632637751476e-01   6.844346472000000e+00  3.38855172e+00  -2.16827563e+00  -2.84566100e-01
C     1.092581078400000e+00   4.054812315105552e-01   9.940565992000000e+00 -2.37490390e+00  -1.26923159e+00  -1.94752580e-01
C     2.262857761275000e+00   1.132669661507584e+00   9.824901799999999e+00  2.39993015e+00  -1.32537079e+00   2.48870950e-01
C     2.465272444125000e+00   1.188481039607862e-01   6.784529184000000e+00 -9.35512020e-01   4.93156399e+00  -5.21098800e-02
C     3.613279897950000e+00   9.869610754007005e-01   6.741682927999999e+00  1.70858709e+00  -1.34372572e+00   1.57437460e-01
C     3.513522863925000e+00   3.935203193183263e-01   9.929704352000000e+00  2.96835604e+00   9.42390680e-01   5.76082870e-01
C     4.879299387000000e+00   1.151548709210500e+00   9.997453567999999e+00 -9.49097797e+00  -1.87459912e+00  -1.22860043e+00
C     4.847534053574999e+00   1.336064600288418e-01   6.903226856000001e+00 -6.87208100e-01   4.40167069e+00  -4.67893140e-01
C     6.101158117574999e+00   7.721488818773731e-01   6.947834175999999e+00 -1.16212279e+00   6.52599956e+00  -2.01564590e-01
C     5.931609624825000e+00   4.278091001562379e-01   1.009219456800000e+01  4.41448283e+00  -5.80143329e+00   4.12032000e-03
C     7.185778996124999e+00   9.708169019743194e-01   9.977131768000000e+00  2.81029390e+00   4.36263050e+00   7.93612130e-01
C     8.659463248274999e+00   2.303884053413943e+00   6.679810000000000e+00 -1.26300347e+00   1.59058742e+00   1.29720735e+00
C     2.441430187650000e+00   3.151738948305948e+00   6.669887304000000e+00  1.29754006e+00   2.39559140e-01  -6.93369900e-02
C     2.312477545725000e+00   2.526868015924052e+00   9.681915888000001e+00 -8.53139930e-01   1.28721321e+00   9.56303200e-01
C     3.570010643700000e+00   3.213135799898825e+00   9.705853247999999e+00 -1.89281100e+00   5.30994270e-01   3.23008180e-01
C     3.701737150125000e+00   2.532223384431741e+00   6.639398280000000e+00 -3.04044271e+00  -6.96199533e+00   6.67216140e-01
C     4.951867520325000e+00   3.025209577467878e+00   6.721573016000000e+00  5.99396030e-01   5.07759665e+00   2.63536660e-01
C     4.768071487799999e+00   2.453853264189928e+00   9.741530535999999e+00  1.09146621e+00   4.92101470e+00   1.60022304e+00
C     5.923003730550000e+00   3.179345270322421e+00   1.001410336800000e+01  4.42333682e+00   2.34919436e+00   8.06948000e-02
C     6.138027701850000e+00   2.334768394816058e+00   6.848985296000000e+00  7.28791310e-01  -3.49656833e+00  -1.04446720e-01
C     7.394397048675000e+00   3.008909204192292e+00   6.845696544000000e+00  6.99773240e-01  -3.38668013e+00  -7.25637580e-01
C     7.234522620975000e+00   2.394313070993244e+00   1.007734323200000e+01 -1.44963759e+00   4.00337567e+00  -1.74451357e+00
C     8.469999798675000e+00   3.253664825552942e+00   9.826690744000000e+00  5.05218300e-02  -4.97106431e+00   1.25610127e+00
C     9.897121840050000e+00   4.622844114085798e+00   6.844155936000000e+00 -2.92566702e+00  -5.65023102e+00  -8.54261300e-02
C     3.661069715700000e+00   5.239747445221490e+00   7.027419335999999e+00  5.42375798e+00  -4.35517010e-01  -1.48363324e+00
C     3.543336915675000e+00   4.615817042148913e+00   9.900823663999999e+00 -3.36074470e-01   2.27053145e+00   5.09254500e-02
C     4.803928807500000e+00   5.404190727059125e+00   9.958204920000000e+00 -1.55680815e+00  -1.52834280e-01   4.84530730e-01
C     4.941742656075000e+00   4.524335036492271e+00   6.761843295999999e+00  7.60303690e-01  -1.58333542e+00   1.16262869e+00
C     6.252565529099999e+00   5.138082797652605e+00   6.786831120000000e+00 -1.64781521e+00  -1.52045983e+00   5.55931050e-01
C     6.027741038249999e+00   4.828677858302298e+00   1.008311357600000e+01  8.63969290e-01  -7.39707777e+00  -8.47270790e-01
C     7.324097664375000e+00   5.387659608372842e+00   1.005207497600000e+01 -2.83148443e+00   9.25387520e-01   1.52632640e-01
C     7.498977397499999e+00   4.332908630970520e+00   6.854047759999999e+00 -2.81621618e+00   6.06699923e+00  -2.97837440e-01
C     8.645368674075000e+00   5.185230879975347e+00   6.922196000000000e+00 -1.81097578e+00  -1.90187306e+00  -4.86442440e-01
C     8.549564785199999e+00   4.599613437209591e+00   1.001679521600000e+01 -5.99379185e+00   1.41717475e+00  -1.18990780e-01
C     9.585803876249999e+00   5.386121113507135e+00   1.002392433600000e+01  7.92515172e+00  -1.58141450e-01  -1.15948190e-01
