72
Lattice="7.395 0 0 3.6975 6.40425786098592 0 0 0 13.6 " PBC="1 1 1" Properties=species:S:1:pos:R:3:force:R:3 Energy="-564.62504184"
C     3.680195515125000e+00   6.283066181917926e+00   1.357278939200000e+01 -4.13984186e+00  -3.40615255e+00  -5.56629890e-01
C     1.162153238400000e+00   4.387339315118760e-01   1.357274532800000e+01  3.12505428e+00   5.74189721e+00   3.70820140e-01
C     1.319760026325000e+00   9.639697256407219e-01   3.773989120000000e+00  2.22089114e+00  -1.36110470e-01   4.91979820e-01
C     2.641955928675000e+00   1.568230027079516e+00   3.934451440000000e+00 -5.99853640e-01   2.69533000e+00   1.74600400e-02
C     6.090140713799999e+00   6.240845407507511e+00   1.345038259200000e+01  2.00960261e+00  -2.77474039e+00  -2.00602104e+00
C     3.613736650125000e+00   5.683027631303021e-01   1.340759604000000e+01  2.19640483e+00  -1.74911156e+00   1.37669561e+00
C     3.914835796199999e+00   9.828478767475368e-01   3.803495136000000e+00 -3.11676314e+00  -1.75671308e+00  -7.41455190e-01
C     5.026767777825000e+00   1.742511657926840e+00   3.577603488000000e+00  4.10082949e+00  -1.77489583e+00   2.28256280e-01
C     8.592125413574999e+00   6.167668371879214e+00   1.326139672000000e+01  8.19263680e-01   6.15840602e+00   1.06976574e+00
C     6.135925857975000e+00   5.529804481150951e-01   1.330677271200000e+01 -1.39570774e+00  -3.26391630e-01   4.63314740e-01
C     6.336394398674999e+00   1.014951076505566e+00   3.467876512000000e+00 -7.00673380e-01  -7.34485400e-01   7.58688280e-01
C     7.571004216824999e+00   1.795680190936031e+00   3.809365576000000e+00 -2.73284610e+00  -9.28370802e+00  -2.15519245e+00
C     1.207944076725000e+00   1.898518610885497e+00   2.899506400000000e-02  8.73719690e-01   2.22312374e+00   2.18196000e-02
C     2.480522967750000e+00   2.578761140980424e+00   1.977100000000000e-01 -2.73212807e+00   4.42036162e+00  -4.44481300e-02
C     2.707880985600000e+00   3.025552653561439e+00   4.001012560000000e+00 -4.59057965e+00   2.99916299e+00  -2.05848550e+00
C     3.774301216200000e+00   3.850668142197677e+00   3.488649424000000e+00  2.37321350e+00  -5.01513934e+00   2.59671594e+00
C     3.740704289175000e+00   1.995962596354327e+00   2.020237840000000e-01 -2.35630012e+00  -3.62018695e+00  -3.42724280e+00
C     4.811015620874999e+00   2.631112426644101e+00   1.321185980800000e+01  2.92571026e+00   3.60245995e+00   2.13613218e+00
C     5.010366333375000e+00   3.114671936365790e+00   3.573598696000000e+00  3.30027914e+00   3.06754734e+00  -1.02358366e+00
C     6.426866011874999e+00   3.839840143220882e+00   3.602312512000000e+00 -7.33354948e+00   1.50022266e+00  -2.60004500e-01
C     6.042399629099999e+00   1.949135751605843e+00   1.314705608000000e+01  3.93944669e+00   1.51625874e+00   1.04197436e+00
C     7.482399619274999e+00   2.791393581298522e+00   1.337827865600000e+01 -3.33233332e+00  -3.14951019e+00  -2.17910718e+00
C     7.500231552524999e+00   3.079723004627670e+00   3.896300720000000e+00  4.30162571e+00   7.06632774e+00   1.03698884e+00
C     8.777078763599999e+00   3.848702547375285e+00   4.056360071999999e+00  7.46034110e-01  -1.06580299e+00  -3.33380154e+00
C     2.416508778825000e+00   4.154866483950382e+00   1.371190080000000e-01  5.07179872e+00  -4.34385611e+00   3.67377350e-01
C     3.721187331225000e+00   4.860984073034490e+00   9.459425600000000e-02 -1.89249905e+00  -1.02750238e+00  -1.31186743e+00
C     3.807116639624999e+00   5.206953994551309e+00   3.416891744000000e+00 -6.44154400e-02   5.46983370e-01  -2.20884600e-01
C     4.978667628899999e+00   5.951861212854757e+00   3.559174807999999e+00  3.42652597e+00   7.01677270e-01   2.23556000e-01
C     4.912028251950000e+00   4.145900586988961e+00   1.331938140800000e+01 -1.15982740e+00  -3.24131882e+00  -3.37762060e-01
C     6.126553028249999e+00   4.745990563794480e+00   1.302197620000000e+01  1.41754376e+00   4.61537929e+00   2.59675091e+00
C     6.320449373624999e+00   5.310399794316217e+00   3.600059672000000e+00 -2.31970720e-01  -2.15328195e+00   7.38755300e-01
C     7.593711525674999e+00   5.974948882652950e+00   3.732856464000000e+00 -3.68693227e+00   2.14714392e+00  -1.06810845e+00
C     7.464221747924999e+00   4.199859341375499e+00   1.306129448000000e+01 -7.38658590e-01  -4.17726961e+00   2.73048291e+00
C     8.700706420425000e+00   4.835980441412320e+00   1.345794718400000e+01 -4.61378283e+00  -4.72233900e-01  -2.04442581e+00
C     8.726538671400000e+00   5.309334189850892e+00   3.494403992000000e+00  2.97149579e+00  -6.89497131e+00   2.81122745e+00
C     9.989593911675000e+00   5.811944765641615e+00   3.322566904000000e+00 -4.07229610e-01   8.06029884e+00   1.00668285e+00
C     7.394749753200000e+00   1.865211922990416e-01   6.756528824000000e+00  7.30537290e-01  -1.07286650e+00   1.73043340e-01
C     1.253555734200000e+00   8.860330455708733e-01   6.941725872000000e+00  8.45328430e-01  -1.46999556e+00   5.00861680e-01
C     1.106855462025000e+00   5.131738867901646e-01   9.890937279999999e+00 -2.41483331e+00  -2.33261269e+00  -7.07114030e-01
C     2.387302152375000e+00   1.153432009319390e+00   1.014657539200000e+01 -6.15280591e+00   7.84254240e-01  -6.50076010e-01
C     2.490578762700000e+00   6.627612757125360e-02   7.104386631999999e+00 -1.29735883e+00   8.20480932e+00  -7.74371970e-01
C     3.638406665925000e+00   9.025458480796760e-01   7.169129295999999e+00  2.63380012e+00   4.16632090e-01  -1.00956725e+00
C     3.477145934550000e+00   4.898148045438648e-01   9.885801239999999e+00  8.43447466e+00  -3.32098737e+00   9.54133730e-01
C     4.836623618475000e+00   1.140830479213425e+00   9.989462888000000e+00 -3.74428905e+00   8.36692970e-01  -1.83036646e+00
C     4.890296047800000e+00   1.978276533805572e-01   6.859960223999999e+00 -1.77539032e+00  -9.63834300e-02   3.81168980e-01
C     6.113780347275000e+00   8.068233271236138e-01   6.702318272000000e+00  2.67586230e+00   4.31167640e+00   2.05195910e+00
C     6.019055093100000e+00   3.899269542756588e-01   9.705846176000000e+00  9.07532100e-02   1.78077899e+00   1.27472443e+00
C     7.185658531574999e+00   1.214234289612544e+00   9.735134184000000e+00  3.49365332e+00  -4.39933124e+00   1.60782411e+00
C     1.363119832350000e+00   2.308453427354475e+00   7.051365264000000e+00 -5.59747294e+00  -2.32025103e+00   4.60157700e-02
C     2.429422371525000e+00   3.077836822602742e+00   7.271865736000000e+00  5.76515409e+00   2.17753606e+00  -2.11142481e+00
C     2.313465554700000e+00   2.511292668680796e+00   1.026193045600000e+01 -8.81840270e-01   5.99172650e+00  -1.44344319e+00
C     3.550690023000000e+00   3.383213675886845e+00   1.024258364000000e+01 -4.68659680e-01  -5.15895298e+00  -1.55563567e+00
C     3.731929160325000e+00   2.389280092826227e+00   7.240706368000000e+00 -3.42113769e+00  -3.61938920e+00  -4.50635120e-01
C     4.958604439275000e+00   2.964467241028293e+00   7.079834416000000e+00  1.71286961e+00   4.26397028e+00  -8.77964490e-01
C     4.731419131650000e+00   2.616437133800490e+00   9.924453392000000e+00  3.35865789e+00  -9.54026110e-01   1.67033287e+00
C     6.074967209100000e+00   3.276218252160453e+00   9.772024728000000e+00 -6.16955245e+00   3.28819463e+00   9.19497650e-01
C     6.199725924674999e+00   2.301353346877986e+00   7.008344928000001e+00 -1.67135469e+00  -4.42124731e+00  -1.57733868e+00
C     7.426104812025000e+00   2.911943488700446e+00   7.069397776000001e+00  1.57290236e+00   2.43608470e+00  -9.04101790e-01
C     7.206523561050000e+00   2.577633223086121e+00   9.872444952000000e+00 -4.26533530e-01  -1.11023653e+00  -7.44813630e-01
C     8.362410424350001e+00   3.243156911383990e+00   9.893057519999999e+00  7.37207700e+00   2.11355826e+00   2.67179159e+00
C     9.938343825524999e+00   4.521128424581769e+00   6.926013655999999e+00 -4.43638115e+00  -2.63046958e+00   1.40473390e+00
C     3.755784025275000e+00   5.120944939576667e+00   6.871560752000000e+00  1.51075618e+00   2.92304114e+00  -9.19444680e-01
C     3.606043003050000e+00   4.737255796499226e+00   9.963968599999999e+00 -3.44127775e+00  -1.58176953e+00   2.16260140e-01
C     4.738150282499999e+00   5.384666194206500e+00   9.776402976000000e+00  6.14138782e+00   5.07114418e+00   6.74287340e-01
C     5.000573689499999e+00   4.456196358607594e+00   6.901530800000000e+00 -1.12863806e+00  -1.96772857e+00   8.64463660e-01
C     6.216828784875000e+00   5.181571999374771e+00   6.945403175999999e+00  1.82024170e-01  -7.82512630e+00  -9.96627700e-02
C     6.042392751750000e+00   4.733400433267506e+00   9.759660695999999e+00 -6.45793780e-01  -1.31327977e+00   4.01591340e-01
C     7.259669059649999e+00   5.465118915061806e+00   9.757030455999999e+00 -7.81573600e-02  -4.50608380e-01   7.23052190e-01
C     7.400465755425000e+00   4.316744220089301e+00   7.043980600000000e+00  1.93728665e+00   4.83352232e+00  -1.00616484e+00
C     8.645608937624999e+00   5.216246444621013e+00   6.885293215999999e+00 -5.85296210e-01  -4.32107610e+00   5.36729430e-01
C     8.506205644725000e+00   4.701958921431572e+00   9.851237112000000e+00 -9.86347150e-01  -4.86102730e-01  -3.40698550e-01
C     9.786053635875000e+00   5.372211897988736e+00   9.801215224000000e+00 -3.08916743e+00   1.44286467e+00   5.75917220e-01
