64
Lattice="7.10842262195238 0 0 0 7.10842262195238 0 0 0 7.10842262195238 " PBC="1 1 1" Properties=species:S:1:pos:R:3:force:R:3 Energy="-510.08504094"
C     2.517732207777800e-03   7.106395084616097e+00   7.082004380585449e+00 -1.46336582e+00   4.06466720e-01   1.42850792e+00
C     1.801394282081826e+00   1.740437283420087e+00   3.896652461295880e-02 -4.54805370e-01   1.87587287e+00  -1.71859177e+00
C     7.093445600045017e+00   1.790843890144995e+00   1.800258071810245e+00  1.29579666e+00  -6.34119200e-01  -7.67611600e-01
C     1.778231131553424e+00   7.051309856291157e+00   1.726142672036624e+00 -1.03807300e-02   2.39858783e+00   9.32662650e-01
C     8.403782654777717e-01   8.891224964887668e-01   8.746946021811790e-01  2.03124849e+00  -7.88700550e-01   5.63791170e-01
C     2.659421268156307e+00   2.691771628415701e+00   9.181709944411706e-01 -8.01157070e-01  -1.42231418e+00   5.90917900e-02
C     8.715201228075394e-01   2.611288290406406e+00   2.755027490952747e+00 -8.57230590e-01   2.81541507e+00  -2.17672111e+00
C     2.605814520652101e+00   9.103714909740541e-01   2.618585370562741e+00  1.03163508e+00  -7.49979160e-01   1.88494971e+00
C     3.581693395943861e+00   3.047615355140460e-02   7.102301344029240e+00 -9.48817490e-01  -1.11405275e+00  -5.47450550e-01
C     5.350546740955850e+00   1.818040999426020e+00   5.536181704908399e-03 -1.12147185e+00  -1.40444582e+00   7.37493000e-02
C     3.521245289257488e+00   1.800748126465668e+00   1.820338441616804e+00  1.23521144e+00  -1.30590290e+00  -1.60727940e+00
C     5.336396217298895e+00   7.108144325254427e+00   1.769494311479635e+00 -3.71959100e-01  -6.59288070e-01   1.09134083e+00
C     4.406513172496333e+00   8.564772077748691e-01   9.238386108803228e-01  1.54835905e+00   2.40203928e+00  -6.33316790e-01
C     6.273581389237851e+00   2.668991835119197e+00   8.291723348069251e-01 -1.44937356e+00   1.24996222e+00   2.47919652e+00
C     4.505909250812627e+00   2.580168753523665e+00   2.691535131195133e+00 -1.58441938e+00   2.95045225e+00  -1.98383161e+00
C     6.293547882114038e+00   8.757468619816176e-01   2.697365459428057e+00 -2.25793229e+00  -4.09553780e-01  -1.08373126e+00
C     3.436645108287820e-02   3.602315782975195e+00   7.053432644538169e+00 -5.28734640e-01  -1.88748542e+00   1.63293043e+00
C     1.774530131316322e+00   5.348090923109092e+00   7.080128538940256e+00  5.00925470e-01  -1.54694444e+00   1.87740063e+00
C     7.055006804727367e+00   5.380044349049386e+00   1.716870943160680e+00  1.06235969e+00  -1.95683444e+00   3.01402510e+00
C     1.754562287839837e+00   3.536021638441908e+00   1.843319047852324e+00 -2.85535500e-01  -4.95089000e-03  -1.09169237e+00
C     8.277223587608976e-01   4.425757520718554e+00   9.304475957270416e-01  2.11656724e+00   1.11841106e+00  -1.18574662e+00
C     2.707811215383921e+00   6.179686448102950e+00   8.530444794074449e-01 -1.71400688e+00   1.02923130e+00   6.31620480e-01
C     9.120261895915378e-01   6.251443770840837e+00   2.660823546686555e+00 -1.50827928e+00  -1.75899719e+00  -1.41621323e+00
C     2.689692272630899e+00   4.396877918887601e+00   2.680346971580837e+00 -1.37169102e+00   1.47269961e+00  -1.04541232e+00
C     3.487320768808895e+00   3.550512726626588e+00   8.819419944634000e-03  2.02099144e+00  -2.55131110e-01  -2.44704970e-01
C     5.254352082934926e+00   5.312665885729644e+00   7.072084079229655e+00  1.88751381e+00  -3.04639750e-01   1.09794210e+00
C     3.568454314235241e+00   5.291717506436957e+00   1.772616188525887e+00 -8.36498120e-01   6.11874920e-01   1.36322700e-01
C     5.351430744392873e+00   3.581588120204858e+00   1.804231751139051e+00 -4.50322490e-01  -1.71069458e+00  -1.57351014e+00
C     4.388863741057361e+00   4.387500132346167e+00   8.668855734277517e-01  1.78731669e+00   1.52569585e+00   1.13967926e+00
C     6.148084960166573e+00   6.171532305431321e+00   8.734109632244594e-01  9.43039230e-01   2.25178518e+00  -9.12787540e-01
C     4.415397563423714e+00   6.218403395997719e+00   2.681821542769130e+00  1.58413939e+00   3.91895100e-01  -5.01325730e-01
C     6.195884766148275e+00   4.495526759818081e+00   2.695418888977797e+00  8.98601640e-01  -1.13143592e+00  -8.08431090e-01
C     1.566717670715860e-02   7.030888068946159e+00   3.611442642198144e+00 -1.80425530e-01   2.09660239e+00  -2.15652659e+00
C     1.666195638060735e+00   1.723256368116000e+00   3.602937272364862e+00  3.19981248e+00  -6.81336690e-01  -1.19886381e+00
C     7.091599613774829e+00   1.702036589247680e+00   5.354933846144236e+00  1.99864843e+00   1.71379483e+00  -4.16563150e-01
C     1.845765411496997e+00   7.070557545472010e+00   5.359913225105319e+00 -2.67388640e-01   1.11146029e+00  -1.02944232e+00
C     9.042035126666802e-01   7.433578930853088e-01   4.486882278154125e+00 -7.69859780e-01   3.46289983e+00   5.55503530e-01
C     2.643412744994936e+00   2.653934632157060e+00   4.348552587221604e+00 -1.40980914e+00  -7.10205800e-02   2.71652807e+00
C     9.402495418462119e-01   2.689021308619797e+00   6.217928055777120e+00 -1.23499370e+00  -1.38358826e+00  -4.40021830e-01
C     2.714079706787142e+00   9.137870169587380e-01   6.156071912738178e+00 -1.07937587e+00   3.29028890e-01   2.69745693e+00
C     3.606466035521882e+00   8.143522688233920e-02   3.571975826801189e+00 -6.25002090e-01  -3.93393170e-01  -2.10064266e+00
C     5.408693495818998e+00   1.800165591231959e+00   3.523550621797380e+00 -2.59936600e-01  -2.30518823e+00   2.40941047e+00
C     3.534594835853622e+00   1.878287297994211e+00   5.261127973544762e+00  1.60283156e+00  -2.75043573e+00   2.32717372e+00
C     5.320357767678294e+00   5.753912689759000e-03   5.339377418661496e+00 -4.31472260e-01   6.99113720e-01   9.12641750e-01
C     4.473885949077979e+00   9.282189630672192e-01   4.496494002883984e+00  1.05658000e-01   8.58308110e-01  -2.61962139e+00
C     6.285461838131109e+00   2.619465180030418e+00   4.439922261220750e+00 -1.59656718e+00   2.35141338e+00   8.00823850e-01
C     4.470960122327587e+00   2.710450714871180e+00   6.227392778327198e+00 -1.79445814e+00  -3.34504730e-01  -3.39763980e-01
C     6.212608467709444e+00   9.022779831473745e-01   6.239001401139468e+00 -3.91842580e-01  -1.08606876e+00  -2.29576580e-01
C     2.662289090178120e-02   3.624118097077223e+00   3.619929103627257e+00 -1.49964697e+00  -2.26055754e+00  -2.06748256e+00
C     1.768975396628375e+00   5.405730349849851e+00   3.522932899871702e+00  2.13363501e+00  -2.10469739e+00   8.62765210e-01
C     1.025660082994560e-02   5.396944908165341e+00   5.388377410718359e+00 -7.19398550e-01  -1.00023190e+00  -2.30373421e+00
C     1.749585396826670e+00   3.584306381014746e+00   5.295082633705264e+00  1.54503743e+00  -6.27569710e-01   1.59909820e-01
C     8.628875122093590e-01   4.496638161694718e+00   4.443559498906952e+00  1.75593847e+00   1.25205263e+00   1.11689999e+00
C     2.783462247696140e+00   6.332865776057104e+00   4.375776282003227e+00 -4.23172488e+00  -4.88666887e+00   2.92587401e+00
C     9.024866153512716e-01   6.235857772319999e+00   6.257668545444945e+00  8.35596280e-01  -1.48059780e-01  -1.14555327e+00
C     2.672137312128546e+00   4.436703212037283e+00   6.218834592913849e+00 -1.76479276e+00   4.53044760e-01  -1.58366221e+00
C     3.537928259557045e+00   3.449528200191629e+00   3.498264185432385e+00  1.14196218e+00   2.55093437e+00   9.63893460e-01
C     5.309863674448613e+00   5.318267536006882e+00   3.574764389910789e+00 -8.64506130e-01   6.03298140e-01  -1.89665990e-01
C     3.557545373461458e+00   5.275809069866074e+00   5.280215296711308e+00 -2.60114280e-01   2.41013186e+00   8.66321340e-01
C     5.321373916691822e+00   3.580508777314237e+00   5.326784421484810e+00  1.55411086e+00  -1.19211110e+00  -2.32209540e-01
C     4.394119566574138e+00   4.376615218040840e+00   4.414016894498231e+00  1.68775528e+00   7.83115440e-01   3.76405630e-01
C     6.172856249144296e+00   6.247141895639666e+00   4.451129968997251e+00  9.44382860e-01  -1.77866438e+00   9.27554510e-01
C     4.404934889422015e+00   6.225905056557059e+00   6.233023502052952e+00  1.43598041e+00  -9.05884100e-01  -1.73015042e+00
C     6.264200119569332e+00   4.478092287079138e+00   6.192948916521988e+00 -2.46643164e+00  -2.28711070e-01   4.60056120e-01
