64
Lattice="9.86 0 0 4.93 8.53901048131456 0 0 0 30 " PBC="1 1 1" Properties=species:S:1:pos:R:3:force:R:3 Energy="-514.68078061"
C     9.855550872199998e+00   4.682668677678992e-01   1.433718000000000e-01  1.97818210e-01  -6.96212260e-01  -3.04615610e-01
C     1.218044648400000e+00   1.139263677527976e+00  -1.640399999999431e-03  1.46519735e+00   3.63505250e-01   5.81684850e-01
C     1.237724468900000e+00   2.465573525719304e-01   3.597212100000000e+00 -8.35807740e-01   1.46273655e+00   8.46180100e-02
C     2.451276852000000e+00   1.032648495938259e+00   3.521729400000000e+00  2.28313060e-01  -3.11466371e+00  -3.09392230e-01
C     2.453349769100000e+00   4.196198688930248e-01   8.687160000000001e-02  1.29424482e+00   5.51279150e-01  -4.07106100e-01
C     3.710925770399999e+00   1.150588454786971e+00  -3.945899999997948e-03 -3.89562160e-01   6.69494960e-01  -2.63593100e-01
C     3.687094002500000e+00   2.600510384928456e-01   3.475845900000000e+00  2.13629090e-01   6.02489240e-01   3.45276330e-01
C     4.933564143500000e+00   9.917706303585080e-01   3.459960300000000e+00 -1.17722139e+00  -3.28352930e-01  -6.71518900e-01
C     4.972745762200000e+00   4.618175239325648e-01   5.722890000000000e-02 -2.73294849e+00  -6.93888130e-01   7.48215300e-02
C     6.155257090499999e+00   1.145726256829554e+00   1.117599000000000e-01  1.55466377e+00   4.70773690e-01   8.85068500e-02
C     6.170694498100000e+00   2.640109192128408e-01   3.417890700000000e+00 -1.43664041e+00   1.22406824e+00   3.90910520e-01
C     7.372629977100000e+00   9.988112152794776e-01   3.499793100000000e+00  1.13275443e+00  -1.89260090e+00  -3.22244310e-01
C     7.380435646100000e+00   4.126431557704456e-01   1.281018000000000e-01  1.39835052e+00   2.86695398e+00  -3.74906230e-01
C     8.646718126000000e+00   1.149954860209355e+00   1.088997000000000e-01 -1.54609733e+00  -9.40830000e-03   5.00305250e-01
C     8.603750415200000e+00   2.820235348698768e-01   3.538646100000000e+00  2.18548180e-01  -1.05878317e+00  -2.80185880e-01
C     9.834142199300000e+00   9.775779410397000e-01   3.536925000000000e+00  1.25818282e+00  -3.19818100e-02   3.58719460e-01
C     1.111069411570000e+01   2.554035027198855e+00  -1.411559999999987e-01 -7.48796590e-01   7.48462730e-01  -4.19979600e-01
C     2.441043552400000e+00   3.305809936808579e+00  -3.347072999999980e-01  2.17795118e+00  -1.38196906e+00   7.88894590e-01
C     2.462009757800000e+00   2.409174898520790e+00   3.314619900000000e+00 -4.24609210e-01   1.16209224e+00  -1.66995410e-01
C     3.694191082600000e+00   3.113260203110658e+00   3.223813800000000e+00 -6.65547360e-01  -5.85829220e-01   1.97850230e-01
C     3.730892319700000e+00   2.594148736730751e+00  -1.951536000000011e-01 -1.43534996e+00  -6.09810130e-01   4.04089190e-01
C     4.955880577299999e+00   3.306779541448583e+00  -5.794080000000079e-02 -5.06328160e-01  -3.74016270e-01   6.01632000e-03
C     4.865851234399999e+00   2.430906680192391e+00   3.351045900000000e+00  4.12981016e+00  -1.92063136e+00   8.73222600e-01
C     6.168880652500000e+00   3.119059301297940e+00   3.455329500000000e+00 -1.59375182e+00  -6.16409000e-01  -8.35798580e-01
C     6.165442519799999e+00   2.556611844391405e+00   1.354383000000000e-01 -2.91785060e-01   9.36683990e-01  -4.39668190e-01
C     7.390607024900000e+00   3.254080525930635e+00   1.697577000000000e-01  1.65533980e+00   5.20400640e-01  -3.63247920e-01
C     7.400331548500000e+00   2.380642563512814e+00   3.460656900000000e+00 -1.28005697e+00   1.69906993e+00   5.69674520e-01
C     8.602864395599999e+00   3.105255222346077e+00   3.450516900000000e+00  1.41349161e+00   2.05207710e-01  -4.20689110e-01
C     8.666209719099999e+00   2.561501879522987e+00   1.058346000000000e-01 -2.08007093e+00  -3.06200010e-01  -3.42245600e-02
C     9.859385081099999e+00   3.259791074579239e+00  -6.436109999999928e-02  7.08095910e-01   8.57021340e-01  -3.24302560e-01
C     9.857344356899999e+00   2.406539674496558e+00   3.457217400000000e+00  5.06654330e-01   6.34260340e-01  -6.60850820e-01
C     1.111458561120000e+01   3.148474399209339e+00   3.248373600000000e+00 -1.88504920e+00  -1.44308427e+00   4.04902050e-01
C     1.234736622680000e+01   4.719969124818148e+00  -3.704660999999980e-01  3.93365000e-02   5.60873180e-01   2.31512040e-01
C     3.724510089600000e+00   5.447849065231373e+00  -2.388893999999979e-01 -2.46543450e-01   5.27137970e-01   5.75339410e-01
C     3.743912351100000e+00   4.496656837355083e+00   3.176641200000000e+00 -2.84778635e+00   2.03086519e+00   7.26201100e-02
C     4.882765522100000e+00   5.259403094580034e+00   3.371868600000000e+00  2.84260812e+00  -4.60714640e-01   3.01859040e-01
C     4.929445325700000e+00   4.743857262806261e+00  -4.792830000000237e-02  1.21785272e+00  -1.02847183e+00  -3.92768200e-02
C     6.176143380599999e+00   5.408915276167603e+00   1.583628000000000e-01 -2.99575940e-01   1.13118794e+00  -1.32196030e-01
C     6.152478739699999e+00   4.521503991610206e+00   3.440094900000000e+00 -4.09295400e-02   1.09520223e+00   2.05409880e-01
C     7.399875326300000e+00   5.239701035699530e+00   3.473476800000000e+00 -1.33609324e+00   3.81357090e-01   1.25295000e-02
C     7.432651790400000e+00   4.674434339092919e+00   1.526616000000000e-01 -1.70131792e+00   1.23818701e+00   9.95156200e-02
C     8.639600339899999e+00   5.434778145719322e+00   6.619740000000000e-02  3.60959340e-01  -1.04754977e+00  -5.23784100e-02
C     8.615095528399999e+00   4.532648510357967e+00   3.355791900000000e+00  4.76573810e-01  -1.54272500e-02   2.26057490e-01
C     9.855534356699998e+00   5.244101700140503e+00   3.210867900000000e+00 -4.49842190e-01   1.89332180e-01   1.58128910e-01
C     9.820741966300000e+00   4.684820081369428e+00  -1.548090000000002e-01  2.93916808e+00   1.14111907e+00   2.11701870e-01
C     1.114034076930000e+01   5.429730907404804e+00  -2.923032000000028e-01 -3.34234097e+00   4.19692140e-01   7.36168840e-01
C     1.109076217500000e+01   4.562794803736770e+00   3.075855300000000e+00 -1.37149300e-02  -1.41374897e+00   8.77751410e-01
C     1.233736720080000e+01   5.196038769582461e+00   3.108081600000000e+00  6.36585850e-01   3.14494474e+00   1.56652400e-02
C     1.359084839340000e+01   6.881144346506830e+00  -6.233280000000008e-02 -1.24321387e+00  -6.15014620e-01   1.77052700e-02
C     4.921116780899999e+00   7.594914682173219e+00   1.821225000000000e-01  5.67822290e-01  -9.47260230e-01  -5.82997710e-01
C     4.902319627600000e+00   6.688074074730048e+00   3.524889300000000e+00  1.05720586e+00  -2.07458516e+00  -1.36175680e-01
C     6.145759346899999e+00   7.356650160409150e+00   3.676162200000000e+00 -8.27969630e-01   1.65802962e+00  -7.61617150e-01
C     6.135867647000000e+00   6.870533430523963e+00   2.354829000000000e-01  2.03329622e+00  -1.60764597e+00  -4.10029850e-01
C     7.426856131699999e+00   7.531724638379542e+00   1.994091000000000e-01 -1.52382532e+00   1.09536190e+00   2.06106460e-01
C     7.334123719099999e+00   6.673249413245616e+00   3.566189700000000e+00  2.89421382e+00  -1.49520878e+00  -3.17206900e-01
C     8.598503613399998e+00   7.355728715788253e+00   3.465770700000000e+00 -3.58119310e-01   1.09612751e+00   1.12443230e-01
C     8.667201339300000e+00   6.855620988011796e+00   1.540812000000000e-01 -8.40611050e-01  -3.63515910e-01  -6.35793840e-01
C     9.877698749299999e+00   7.582400933094988e+00   3.934200000000000e-02 -2.02232350e-01  -5.23754910e-01   1.42654300e-02
C     9.836628201100000e+00   6.657805075770649e+00   3.300254400000000e+00 -1.13870600e-01   6.85592180e-01   1.15215430e-01
C     1.105813149100000e+01   7.412388636707455e+00   3.304445100000000e+00  1.59902451e+00  -1.94551625e+00  -3.20335150e-01
C     1.107132693180000e+01   6.873910609168804e+00  -1.195649999999979e-01  2.45322300e+00  -1.10680029e+00  -3.38402080e-01
C     1.234525564450000e+01   7.602956551463073e+00  -6.032610000000105e-02 -9.79423680e-01  -2.80495678e+00   2.23368200e-02
C     1.233568582430000e+01   6.683065518133004e+00   3.210918300000000e+00 -7.43935210e-01  -1.50376042e+00   5.82796700e-01
C     1.357396743250000e+01   7.352866695645671e+00   3.439717800000000e+00 -2.56509482e+00   2.70631967e+00  -1.53560420e-01
