64
Lattice="9.86 0 0 4.93 8.53901048131456 0 0 0 30 " PBC="1 1 1" Properties=species:S:1:pos:R:3:force:R:3 Energy="-503.84836281"
C     4.918980809100000e+00   8.190591442192359e+00  -4.355340000000005e-01  1.08581138e+00   5.86706610e-01  -5.44935870e-01
C     1.214591183400000e+00   3.875245463721632e-01  -3.744513000000005e-01  1.65046309e+00   2.17900437e+00  -1.00046058e+00
C     9.846361352199999e+00   1.796942534202816e-01   4.042752600000000e+00 -4.24518210e-01   4.69595996e+00  -1.31103372e+00
C     1.189409285700000e+00   1.018415075539462e+00   3.811392000000000e+00  3.23544470e-01  -1.51877714e+00   1.21208539e+00
C     7.387979877199999e+00   8.267390704718744e+00  -3.637547999999988e-01  1.48643163e+00  -1.00058685e+00  -1.14576922e+00
C     3.708569033200000e+00   4.386964452558688e-01  -6.797387999999991e-01 -5.15181210e-01  -6.32450200e-01   1.99090265e+00
C     2.422768979100000e+00   2.454556494398008e-01   4.205492700000001e+00 -6.30066420e-01   3.51135239e+00  -4.83459620e-01
C     3.659244432500000e+00   9.905645805183128e-01   4.277334600000000e+00  3.04717840e-01   1.02946840e-01  -1.15369617e+00
C     9.895150752099999e+00   8.218547137822622e+00  -5.745341999999987e-01  1.05311292e+00   3.47531508e+00  -1.26085211e+00
C     6.233860862599999e+00   4.088537990897360e-01  -5.690948999999996e-01 -1.90169930e-01  -5.31435940e-01   1.53952200e-02
C     4.969801171800000e+00   3.188246206761616e-01   4.385745300000000e+00 -4.47006996e+00  -8.08394930e-01  -8.80917500e-02
C     6.103999288900001e+00   1.111052580094257e+00   4.170433800000001e+00  1.76413200e-01  -4.09319945e+00   8.10913390e-01
C     1.237078150830000e+01   8.289099687232364e+00  -6.153297000000002e-01  1.07050100e-02  -4.01535205e+00  -5.49895420e-01
C     8.654428498100000e+00   4.487064710712584e-01  -4.960823999999988e-01  7.48394350e-01  -4.22438335e+00   4.00520250e-01
C     7.307758424200000e+00   2.749115638212944e-01   4.049963700000000e+00  5.25794590e-01   2.86786274e+00  -3.82218300e-02
C     8.555762584000000e+00   8.783403791145984e-01   3.952368300000000e+00  1.97751975e+00   2.59819476e+00  -8.92182930e-01
C     1.339442546000000e+00   1.870724366595885e+00  -6.779571000000004e-01 -2.30157689e+00  -5.47035500e-02  -9.01991200e-02
C     2.534041593400000e+00   2.654048955956799e+00  -9.341078999999972e-01  1.93696050e-01  -2.85619256e+00  -1.22631200e-02
C     1.103313885600000e+01   2.498803597342853e+00   3.477564900000000e+00  1.19484374e+00  -3.22918187e+00   6.55195290e-01
C     2.437778561300000e+00   3.193486341322878e+00   3.516582600000000e+00 -6.14362440e-01  -3.49249726e+00   8.85689960e-01
C     3.779559209100000e+00   1.910143769185652e+00  -8.298123000000004e-01 -1.93326491e+00  -4.17862052e+00   4.30932220e-01
C     5.020883120300000e+00   2.427573819011942e+00  -7.549755000000005e-01  3.07383032e+00   4.12927884e+00  -7.61573930e-01
C     3.618832236499999e+00   2.405788241574317e+00   3.973238100000000e+00 -1.07098216e+00   1.49428391e+00  -6.20437200e-02
C     4.745598526499999e+00   3.195133858004889e+00   4.242960300000000e+00  3.35202087e+00   1.02035237e+00  -6.36463900e-02
C     6.402140447300000e+00   1.776578616620007e+00  -5.547108000000023e-01 -6.27723839e+00   2.46962648e+00   6.69405940e-01
C     7.511855888600000e+00   2.581361483146846e+00  -3.011370000000007e-01  1.99306000e-02  -1.77774409e+00  -1.48513794e+00
C     5.996699810899999e+00   2.465911926704627e+00   4.313798400000000e+00  3.45047772e+00   1.97424107e+00  -1.36486680e+00
C     7.412639342799999e+00   3.083655282996288e+00   4.121906999999999e+00 -3.41416907e+00   5.36941020e-01   2.16731430e-01
C     8.728308146999998e+00   1.774898053967438e+00  -3.419723999999995e-01  5.49944110e-01   6.58832122e+00  -1.38960508e+00
C     9.925618793000000e+00   2.576643509076436e+00  -7.308921000000019e-01  5.30840810e-01  -1.27751444e+00   2.09409328e+00
C     8.555572483200001e+00   2.350649716152338e+00   3.762552000000000e+00  1.72646621e+00   4.06653150e-01   7.46355790e-01
C     9.816155735199999e+00   3.181456839528968e+00   3.512097300000000e+00 -2.08933281e+00  -1.11144581e+00   1.67947579e+00
C     2.515440259700000e+00   3.994870254728153e+00  -1.299350399999998e+00  6.50321710e-01   1.08830910e+00   3.30289060e-01
C     3.885425634700000e+00   4.726717590190596e+00  -1.251481199999997e+00 -5.48699947e+00  -3.52331906e+00   8.09013500e-02
C     1.224297944210000e+01   4.563671162382332e+00   3.503027700000000e+00  2.50171953e+00   2.33780250e+00   1.69898885e+00
C     3.584840379499999e+00   5.287604713712120e+00   3.993480900000000e+00  1.09519314e+00   1.51117449e+00   5.66925370e-01
C     4.958389503599999e+00   3.889134847388191e+00  -9.269898000000012e-01  2.77056818e+00   1.29951142e+00   1.81214651e+00
C     6.122541018900000e+00   4.649691275375547e+00  -4.757619000000020e-01  1.39746629e+00  -2.06502900e-02  -1.37778064e+00
C     4.859161815999999e+00   4.723416152568713e+00   4.298175600000000e+00 -1.49259000e-02  -5.42580493e+00  -6.91974900e-02
C     6.181242430299999e+00   5.250324760198118e+00   4.645405200000001e+00 -1.96830731e+00   1.19335364e+00  -1.91295206e+00
C     7.370182626499999e+00   3.993485227228297e+00  -4.393527000000006e-01  3.23641859e+00  -4.85282670e-01   2.20051420e-01
C     8.659327340499999e+00   4.700449544591601e+00  -6.749991000000009e-01 -2.03843141e+00   1.97835886e+00   1.28170331e+00
C     7.446556461000000e+00   4.497160212022878e+00   4.318793100000000e+00 -2.82782738e+00   1.59647000e-01   1.27848230e+00
C     8.608200381100000e+00   5.221951165394963e+00   4.312335900000000e+00  1.64124407e+00   2.39276379e+00  -6.05073420e-01
C     9.876128051300000e+00   4.019440403483305e+00  -8.303435999999991e-01  9.45282330e-01  -1.50795335e+00  -1.69659435e+00
C     1.109612650800000e+01   4.689953478299689e+00  -1.295384100000000e+00  7.16909940e-01  -1.77353776e+00   1.25279003e+00
C     9.863464015200000e+00   4.594075760828153e+00   3.829208400000000e+00 -3.63084686e+00  -9.45730270e-01  -4.23044570e-01
C     1.102528802820000e+01   5.290385100914513e+00   3.625462200000000e+00  1.09178301e+00   2.78994632e+00   1.99267025e+00
C     3.713219650100000e+00   6.077059800257046e+00  -1.043881200000001e+00  3.57290468e+00   2.96329624e+00   1.88157947e+00
C     4.990589305599999e+00   6.765726811353910e+00  -6.169733999999991e-01 -1.63530666e+00   1.12826574e+00   1.65605200e-02
C     1.347811817530000e+01   6.684337659914315e+00   4.256148000000000e+00  2.92893040e-01   1.11342139e+00  -2.48645920e+00
C     4.948000021600000e+00   7.379461529175735e+00   4.341906600000000e+00 -4.35060773e+00  -1.00454541e+00   5.13253930e-01
C     6.242761188799999e+00   6.087141553760467e+00  -4.180203000000020e-01 -4.02057672e+00  -1.64213594e+00  -7.11101530e-01
C     7.427657848299999e+00   6.776301778102657e+00  -3.405629999999995e-01  7.90515160e-01   3.89269037e+00  -1.07516280e-01
C     6.095656496400000e+00   6.742866343277064e+00   4.665307800000001e+00  2.64336711e+00  -3.91380959e+00  -6.08558310e-01
C     7.311608458399999e+00   7.429094356810526e+00   4.563810300000000e+00 -8.39783700e-02   1.14441900e-01  -1.21265880e-01
C     8.634640809199999e+00   6.184374412195178e+00  -5.924166000000000e-01  4.24796388e+00  -3.01297827e+00  -9.12220780e-01
C     1.001764375060000e+01   6.876271645566523e+00  -7.760010000000008e-01 -4.50505679e+00  -3.99768466e+00  -5.57742690e-01
C     8.501333116200000e+00   6.703115029349939e+00   4.546328400000000e+00  3.46107507e+00  -1.89603902e+00  -7.38698370e-01
C     9.764839611699999e+00   7.384478112442631e+00   4.438718400000000e+00  2.69726905e+00   1.15388874e+00  -1.32839995e+00
C     1.116502118740000e+01   6.061893919913832e+00  -1.238208000000000e+00 -1.31294201e+00   4.86464881e+00   3.02832455e+00
C     1.234842785300000e+01   6.820312948187939e+00  -9.222693000000000e-01  1.55140693e+00  -1.87310050e-01  -1.42648990e+00
C     1.104570759520000e+01   6.734471129733548e+00   4.072453800000000e+00 -1.66015875e+00  -2.20304228e+00  -1.28113369e+00
C     1.228176749890000e+01   7.450221832710457e+00   3.949335000000000e+00 -1.18718424e+00  -2.33702058e+00   2.28906922e+00
