76
Lattice="10.7446858958278 0 0 5.37234294791388 9.3051709414712 0 0 0 30 " PBC="1 1 1" Properties=species:S:1:pos:R:3:force:R:3 Energy="-606.23150567"
C     1.514847062891630e-01   1.034050147946816e-01  -3.431369999999987e-01 -8.95501100e-02  -8.24216870e-01   1.83338526e+00
C     1.251744920908667e+01   8.465212793156883e+00  -4.084946999999985e-01  4.86063476e+00   1.24102371e+00   1.35532844e+00
C     1.400241368878752e+01   8.308647336781982e+00  -2.844126000000031e-01 -1.98274334e+00  -1.16485630e-01  -5.60814940e-01
C     1.456168114414092e+01   6.990814971333541e+00  -1.378434000000013e-01 -1.12101041e+00   2.04657036e+00  -7.39669220e-01
C     8.480100119911953e+00   9.111571647697573e+00  -2.157570000000000e-01 -3.13868334e+00  -3.61336150e-01   1.71616916e+00
C     9.864430032643686e+00   8.912945236794812e+00  -2.021912999999991e-01 -8.99380100e-02  -2.16061393e+00   3.85864710e-01
C     1.041880317612278e+01   7.551589609205291e+00  -8.341379999999887e-02 -3.56441868e+00   2.91299780e-01  -4.49488640e-01
C     1.176239230215719e+01   7.315860411058339e+00  -2.175392999999985e-01 -3.72532770e-01   8.58114670e-01   8.67258700e-01
C     1.224463497238042e+01   6.028837466592239e+00   7.868580000000000e-02  3.20237908e+00   1.21651774e+00  -1.57777499e+00
C     1.367709275081257e+01   5.844185096148622e+00  -6.752039999999937e-02  8.87367580e-01   2.61177967e+00   1.55056015e+00
C     6.104217498695649e+00   8.093624377217557e+00  -2.017971000000003e-01  7.04147230e-01   5.29379560e-01   1.09682910e-01
C     7.568135126485284e+00   7.918752392793846e+00  -8.559719999999871e-02 -8.53605510e-01   3.31240496e+00  -5.81159040e-01
C     8.119923635771130e+00   6.682004728606309e+00   1.135005000000000e-01 -1.00337936e+00  -3.08868079e+00  -1.07455671e+00
C     9.511392801325689e+00   6.436804355269787e+00   6.587640000000000e-02  6.42055050e-01   5.68544570e-01   2.98952930e-01
C     1.003149748827647e+01   5.103924783997692e+00   1.119480000000000e-01 -8.73406890e-01   2.51930520e-01  -1.03575992e+00
C     1.140895375682083e+01   4.954164199131212e+00   1.510974000000000e-01  6.57755380e-01  -1.80236372e+00  -2.46987170e-01
C     1.202739547455473e+01   3.657652678805884e+00   3.830700000000000e-02 -1.38789703e+00  -1.65464830e-01   6.61381220e-01
C     5.226502319767247e+00   6.962270708113125e+00  -8.379150000000024e-02  1.10958238e+00  -1.54882987e+00  -8.73564800e-02
C     5.817021231295092e+00   5.652308842349156e+00   7.758599999999999e-03 -1.28642180e-01  -2.79117360e-01   5.91431250e-01
C     7.228491253588495e+00   5.498015243459256e+00   3.635670000000000e-02  1.04179004e+00   6.45122750e-01  -2.28473250e-01
C     7.822857837137128e+00   4.205936985724872e+00  -1.420569000000000e-01 -2.10486403e+00  -7.88648700e-01   6.03656600e-01
C     9.187068218074252e+00   3.961546069208421e+00  -1.351575000000018e-01  8.11552320e-01   1.99818722e+00   1.26409348e+00
C     9.709136442649832e+00   2.679225678980269e+00  -1.179060000000014e-01  3.01427746e+00  -5.97830810e-01  -5.42746620e-01
C     1.119684769385415e+01   2.530936427742822e+00  -1.327335000000005e-01 -2.87717480e+00   1.38365979e+00   9.08151790e-01
C     3.596160359519370e+00   4.668887478124914e+00   1.861416000000000e-01 -3.90107215e+00  -3.55841258e+00  -3.43503850e-01
C     4.954423288193698e+00   4.491554927349539e+00   1.332642000000000e-01  2.71952292e+00   2.38477320e-01  -8.51822690e-01
C     5.583342793829840e+00   3.185169876243196e+00  -1.500990000000257e-02 -6.61719800e-02   1.64037128e+00   6.36208220e-01
C     6.970644256894079e+00   3.047464047277777e+00  -1.715471999999991e-01  6.88809760e-01  -5.56878240e-01  -4.12005280e-01
C     7.533721401803611e+00   1.710402639133536e+00  -3.084051000000017e-01 -1.75823651e+00   8.98435000e-02   1.40555977e+00
C     8.892111386388706e+00   1.549988657109560e+00  -1.457876999999996e-01  1.01869383e+00  -2.58894997e+00  -1.68787283e+00
C     9.438963840695518e+00   1.532744035168424e-01  -2.788293000000017e-01  1.61959784e+00   2.75981718e+00   1.26431120e-01
C     2.631296698682386e+00   3.453375888953227e+00   1.951374000000000e-01  5.08805883e+00   2.91064927e+00  -6.68695920e-01
C     3.362587649763375e+00   2.249144214098426e+00   4.371029999999999e-02 -1.21055052e+00  -1.15244866e+00   9.29387560e-01
C     4.804044854764799e+00   2.063972615116358e+00   3.407100000000000e-02 -1.84067966e+00  -2.37524665e+00  -1.08783975e+00
C     5.369778086028811e+00   6.864435768643128e-01  -1.867970999999997e-01 -4.28586467e+00   3.60841449e+00   8.36649540e-01
C     6.683233310669241e+00   5.182537287443256e-01  -2.731841999999993e-01  3.11686904e+00  -2.57219530e-01  -1.24500369e+00
C     9.838546782715171e-01   1.288115185431038e+00  -1.144412999999993e-01  2.82978272e+00  -3.21944931e+00  -8.07545170e-01
C     2.505206842624155e+00   1.141123168074336e+00  -8.420400000002104e-03 -1.41454636e+00  -2.75465662e+00  -1.81103622e+00
C     1.593412464064892e+01   9.194291639699474e+00   3.142550400000000e+00  3.12168290e-01   8.62534400e-02  -2.01527060e-01
C     1.170373926448970e+01   8.787345621325752e+00   3.258977400000000e+00  6.35937970e-01  -8.29492680e-01   1.96557738e+00
C     1.313640151429454e+01   8.895490690197271e+00   3.111259800000000e+00 -1.50184942e+00  -2.75652520e-01   1.10235961e+00
C     1.396815033598502e+01   7.752177177935367e+00   3.267658500000000e+00 -3.62582600e-01  -5.86174580e-01   3.71758280e-01
C     7.534251168541910e+00   8.258287379447864e+00   3.664590900000000e+00 -5.14782957e+00   7.87318380e-01  -3.10855649e+00
C     8.859633639212493e+00   8.490989977694872e+00   3.509548500000000e+00  1.62162701e+00  -2.67949395e+00  -5.08730240e-01
C     9.686637715056387e+00   7.354374885785837e+00   3.509016900000000e+00  1.25735567e+00  -3.22975736e+00   1.45858506e+00
C     1.110391486401473e+01   7.540859258284121e+00   3.682032000000000e+00  1.18825390e+00  -2.57088494e+00  -2.95239167e+00
C     1.198747821430821e+01   6.294707043930945e+00   3.701731500000000e+00 -5.96899010e-01   2.85822777e+00  -3.97453570e-01
C     1.342923600189769e+01   6.485022820563773e+00   3.636197400000000e+00 -1.65756355e+00  -1.26571592e+00  -3.78116730e-01
C     4.624061051041334e+00   7.890116380587961e+00   3.210747900000000e+00  1.04918630e+00   3.09732810e-01   9.65643560e-01
C     5.481863587102129e+00   6.785560021911671e+00   3.489322200000000e+00  6.77301680e-01   7.23948880e-01   3.06135710e-01
C     6.953204986997223e+00   6.956755254141860e+00   3.573428400000000e+00 -1.96880374e+00  -8.28386550e-01   2.24841450e-01
C     7.713813780578094e+00   5.750642818136666e+00   3.568927200000000e+00  2.44777272e+00   1.76931945e+00   1.44944862e+00
C     9.154376866542350e+00   5.930756777557716e+00   3.545827200000000e+00 -1.26162580e-01   2.37660441e+00  -1.71055990e-01
C     1.003431931141096e+01   4.814455339069248e+00   3.480277500000000e+00 -2.61722175e+00   2.33456620e-01   1.51004511e+00
C     1.139047708750033e+01   5.013863942641227e+00   3.599586300000000e+00  2.80037407e+00  -3.53510130e-01  -8.96653500e-02
C     1.226716217339150e+01   3.871845617122462e+00   3.548702400000000e+00 -3.88877530e-01  -2.90914710e-01   2.41582660e-01
C     3.506462485987292e+00   5.287695210339615e+00   3.756396600000000e+00 -5.15188170e-01   3.02948940e+00  -7.32470010e-01
C     4.882675755543307e+00   5.517567454741803e+00   3.701763900000000e+00  2.81217356e+00  -1.91742121e+00  -1.10304163e+00
C     5.798237908639007e+00   4.350068035224361e+00   3.615874500000000e+00 -1.70666516e+00   3.87558320e-01   2.78070457e+00
C     7.182403857463907e+00   4.482415202348853e+00   3.829629300000000e+00  1.38666970e-01  -7.26670270e-01  -2.67385371e+00
C     8.055243312824604e+00   3.327741286041432e+00   3.678362100000000e+00 -1.08799972e+00  -5.37462600e-02  -2.87648200e-01
C     9.431280315808429e+00   3.501446867287814e+00   3.564542100000000e+00  1.89548978e+00  -6.54210810e-01  -2.23119208e+00
C     1.028845514731895e+01   2.361611627923283e+00   3.171855300000000e+00 -1.31504438e+00   5.46639060e-01   2.46560023e+00
C     1.167910997312914e+01   2.584094915237145e+00   3.374622300000000e+00  1.09010613e+00  -1.94512936e+00  -8.04299600e-01
C     2.939649252620042e+00   4.021380365490228e+00   3.693882300000000e+00 -4.05870310e-01  -9.76686300e-01   5.18271270e-01
C     3.822092684302165e+00   2.908773545123488e+00   3.723591000000000e+00 -1.86132709e+00  -2.64803415e+00  -1.21923071e+00
C     5.225735740151713e+00   3.050061120487131e+00   3.726189300000000e+00 -1.66491200e-01   2.30422890e-01  -1.13244374e+00
C     6.045485756203940e+00   1.911855216554195e+00   3.501674700000000e+00  1.29735040e+00  -2.31372340e-01   1.34915280e-01
C     7.489242162817675e+00   2.033699637238708e+00   3.433413600000000e+00 -6.57335550e-01   1.67774640e-01   3.57344620e-01
C     8.328611652982724e+00   8.817215220043153e-01   3.183798300000000e+00 -1.98394594e+00   7.82815190e-01  -2.93621220e-01
C     9.688694462831366e+00   1.020759107034667e+00   3.113181600000000e+00  3.26878135e+00   1.76460634e+00  -4.58483500e-02
C     1.793184336767635e+00   1.378371714532371e+00   3.359273100000000e+00 -1.12561610e-01   1.41875458e+00   3.66145300e-02
C     3.211449459594487e+00   1.546875333016455e+00   3.481519500000000e+00  9.91955770e-01   1.25193155e+00  -1.15647550e-01
C     4.072236117270288e+00   3.934530552521738e-01   3.284461800000000e+00  4.91475440e-01   4.31540274e+00   2.33565986e+00
C     5.496295634309292e+00   6.219852619872918e-01   3.393225600000000e+00 -8.22672620e-01  -6.60727760e-01  -1.46468520e+00
C     1.226068962832876e+00   6.824551944960100e-02   3.278276400000000e+00  1.08146276e+00  -3.26604650e-01   1.64421169e+00
