64
Lattice="9.86 0 0 4.93 8.53901048131456 0 0 0 30 " PBC="1 1 1" Properties=species:S:1:pos:R:3:force:R:3 Energy="-515.43575032"
C     5.143416840600000e+00   6.684515015161984e+00  -2.543919000000017e-01  6.66867630e-01  -8.16215320e-01   4.82518380e-01
C     6.385919317599999e+00   7.364098312300329e+00  -2.466153000000020e-01 -1.81595110e-01   1.11977345e+00  -8.03890480e-01
C     9.635250666999999e+00   1.910864205499850e+00   3.908450400000000e+00  4.12637590e-01  -1.05831126e+00  -1.08106193e+00
C     1.086642109530000e+01   2.597646827763988e+00   3.804824700000000e+00  2.82453800e-01  -1.28972760e-01  -6.26339800e-02
C     7.598273710699999e+00   6.641694524698033e+00  -2.307063000000014e-01  7.95551200e-01   1.18978017e+00   2.99743230e-01
C     8.849710284400000e+00   7.370778038638414e+00  -2.272001999999986e-01 -7.28103850e-01  -1.10777527e+00  -3.72470820e-01
C     2.258494723600000e+00   1.905980233065709e+00   3.733600500000000e+00 -1.15602844e+00  -1.32011659e+00   1.13852490e-01
C     3.475794153200000e+00   2.574142603687054e+00   3.640045800000000e+00  6.25454680e-01   8.99598990e-01  -2.36030830e-01
C     1.007527747190000e+01   6.677738541835160e+00  -2.967320999999998e-01  2.89064930e-01  -2.21108131e+00  -2.94376600e-02
C     1.130256587030000e+01   7.346303270630324e+00  -3.231470999999999e-01  9.93188500e-01   5.35471460e-01   4.92629550e-01
C     4.709172284799999e+00   1.842439748281933e+00   3.575973000000000e+00 -1.56493710e-01   1.74887760e+00   9.09027670e-01
C     5.901724839900000e+00   2.648690299930074e+00   3.648875400000000e+00  1.19552660e+00  -3.03634244e+00  -2.17626500e-01
C     1.254249306320000e+01   6.629107937860407e+00  -2.871327000000008e-01  5.23165400e-01   2.15844797e+00  -2.36179900e-02
C     1.379530214890000e+01   7.373636984737224e+00  -2.234420999999998e-01 -1.54089033e+00   2.93111830e-01  -7.97466170e-01
C     7.168073529699999e+00   1.874932988691162e+00   3.685760400000000e+00 -7.54039180e-01   1.41987339e+00   4.51573900e-02
C     8.413608203199999e+00   2.619961055340429e+00   3.808751700000000e+00 -1.00834187e+00  -2.56371681e+00  -8.32317300e-02
C     1.468346072800000e+00   2.589449804653712e-01  -4.209707999999992e-01  9.20761500e-02  -7.53565250e-01   1.34622122e+00
C     2.716240737300000e+00   9.569659652024473e-01  -3.241692000000000e-01 -8.15183020e-01   5.96306700e-02  -6.30670910e-01
C     1.083841095520000e+01   3.993895697462071e+00   3.681630900000000e+00  1.74501110e+00   1.88068945e+00   1.85200810e-01
C     1.209767774930000e+01   4.728364252971559e+00   3.627318000000000e+00 -4.98700750e-01   1.88890270e-01  -6.03875800e-02
C     3.927030101900000e+00   2.206827845758536e-01  -2.468423999999985e-01  9.65310600e-01   1.61100055e+00  -6.08596000e-03
C     5.209264040500000e+00   9.397207504172488e-01  -2.326094999999988e-01 -2.80547030e+00  -2.62865540e-01   1.64423050e-01
C     3.460122669200000e+00   4.023619992942950e+00   3.621605100000000e+00  7.86817800e-02  -2.76642690e-01  -9.63689900e-02
C     4.663963691799999e+00   4.779806240756747e+00   3.617250900000000e+00  7.72887150e-01  -1.64237951e+00   5.61415310e-01
C     6.396727159399999e+00   2.284764248310544e-01  -2.607230999999999e-01  1.30538439e+00   2.33805800e-01  -1.65536240e-01
C     7.627847745400000e+00   9.683019285651712e-01  -2.988992999999986e-01  1.36504160e-01  -2.06322660e-01   6.94086600e-02
C     5.889732220499999e+00   4.049176995139276e+00   3.707228700000000e+00  7.24741470e-01  -2.87956900e-02  -6.29032020e-01
C     7.164105076899999e+00   4.697289769153581e+00   3.724069800000000e+00 -4.01527980e-01   7.27031440e-01   7.77006560e-01
C     8.866522767599999e+00   2.675529861500496e-01  -3.164568000000010e-01 -1.18941786e+00  -1.14830878e+00   1.97840030e-01
C     1.007380709940000e+01   9.500421085547393e-01  -4.057752000000008e-01  1.36692661e+00   6.44448400e-01  -3.09607630e-01
C     8.402730059600000e+00   3.988910964704266e+00   3.765677699999999e+00  2.15421880e-01   2.70374742e+00  -2.94933820e-01
C     9.651176539000000e+00   4.748219928650599e+00   3.694282200000000e+00 -1.68496079e+00  -1.18784132e+00   4.81047360e-01
C     2.698387087400000e+00   2.386626958227512e+00  -3.952673999999980e-01 -4.21237010e-01  -4.97145360e-01   4.03973650e-01
C     3.907667083200000e+00   3.080404481706552e+00  -2.708601000000002e-01  1.92209359e+00   9.65898690e-01   4.23859570e-01
C     1.212791738330000e+01   6.182443827315756e+00   3.599578500000000e+00 -1.54935597e+00  -1.70310844e+00  -3.04846090e-01
C     1.333379375640000e+01   6.888134380485758e+00   3.605538000000000e+00  5.19570260e-01   6.50747040e-01   3.96649200e-02
C     5.153386188000000e+00   2.345803827704938e+00  -1.775097000000017e-01  5.79263630e-01   1.27395279e+00  -3.18958420e-01
C     6.403063294000000e+00   3.083617028229338e+00  -1.584363000000018e-01 -1.43260289e+00   4.65960320e-01  -2.11890780e-01
C     4.707793363800000e+00   6.172674943156322e+00   3.660327900000000e+00 -1.33217191e+00   1.26546090e-01  -2.27034880e-01
C     5.926213530300000e+00   6.829396491366249e+00   3.738418200000000e+00  9.58763880e-01   2.13238464e+00   5.73581890e-01
C     7.635008274600000e+00   2.398065816666520e+00  -2.980826999999984e-01 -8.88960230e-01  -6.21319290e-01   3.36198380e-01
C     8.839606446600000e+00   3.109902151849293e+00  -3.888827999999975e-01  1.30729189e+00  -3.06778350e-01   1.09833970e-01
C     7.155402443700000e+00   6.120667672877357e+00   3.832134300000000e+00  5.57785620e-01   3.73047910e-01  -1.38566094e+00
C     8.385256561999999e+00   6.861262626845827e+00   3.737411100000000e+00 -3.32476400e-02  -1.44409130e-01   5.46570430e-01
C     1.007107346370000e+01   2.363084650163838e+00  -4.635788999999981e-01  4.20310050e-01   1.62527296e+00   2.07300140e-01
C     1.132220437740000e+01   3.097360736377107e+00  -4.587687000000003e-01  3.53314500e-02  -7.71417530e-01  -9.83449500e-02
C     9.630402159899999e+00   6.164606517543874e+00   3.695691300000000e+00  4.57274600e-02  -4.07607590e-01  -5.34737570e-01
C     1.086419209440000e+01   6.854570433552442e+00   3.578579100000000e+00  3.57082690e-01   3.94955880e-01   4.16031390e-01
C     3.973449009899999e+00   4.540030570308033e+00  -2.276978999999990e-01 -3.03557342e+00  -1.36207028e+00  -7.92148240e-01
C     5.142776236400000e+00   5.256171164503459e+00  -2.177793000000001e-01  1.33579342e+00  -1.39294680e-01   6.99371240e-01
C     1.331304309060000e+01   8.317180991706786e+00   3.634402500000000e+00  1.63837433e+00  -7.42599720e-01   3.47144240e-01
C     9.645920961800000e+00   4.839169953954336e-01   3.794112900000000e+00 -1.19691454e+00  -1.93448780e-01  -1.38899700e-02
C     6.354571518200000e+00   4.517582963387895e+00  -1.273719000000000e-01  1.58223964e+00   2.43316730e-01  -7.03102270e-01
C     7.596972585100000e+00   5.253815849242761e+00  -1.991796000000008e-01  8.63261790e-01  -1.98914419e+00  -1.68020560e-01
C     5.931713142500000e+00   8.297245903230284e+00   3.795842100000000e+00  4.23917610e-01  -9.34276260e-01  -3.62597310e-01
C     2.246105584300000e+00   4.619656757643928e-01   3.753463500000000e+00 -6.24368760e-01   5.80926040e-01   3.34364330e-01
C     8.875807436599999e+00   4.529852155205978e+00  -3.286256999999999e-01 -1.19829323e+00   1.16040950e-01   3.24118440e-01
C     1.011475784860000e+01   5.211189877437544e+00  -3.555840000000003e-01 -9.42444000e-03   1.32596990e+00  -1.71921190e-01
C     8.387250204699999e+00   8.288437743139955e+00   3.733309200000000e+00  8.25830600e-01  -6.01303130e-01  -1.44600360e-01
C     4.723751132899999e+00   4.309425967895048e-01   3.677161200000000e+00 -1.42913999e+00   5.79515090e-01  -8.24146710e-01
C     1.138318182190000e+01   4.514180082321510e+00  -4.377990000000018e-01 -2.62903299e+00   6.19645900e-02   3.59310800e-01
C     1.256551078950000e+01   5.251597585100267e+00  -3.431676000000010e-01  1.60007285e+00  -1.66359711e+00   3.21234300e-01
C     1.085339771150000e+01   8.269898526706616e+00   3.572867100000000e+00  7.58126940e-01  -4.04557250e-01   2.52674380e-01
C     7.155220280200000e+00   4.378543280423312e-01   3.590223000000000e+00 -1.99204610e-01   1.87123298e+00   3.11982050e-01
