64
Lattice="9.86 0 0 4.93 8.53901048131456 0 0 0 30 " PBC="1 1 1" Properties=species:S:1:pos:R:3:force:R:3 Energy="-510.47365624"
C     5.049501967500000e+00   8.178203728908814e+00  -1.567404000000003e-01 -4.51441276e+00   3.18150300e-02   9.19260400e-02
C     1.244742225300000e+00   4.092377983910216e-01  -2.369714999999992e-01  3.28569393e+00  -5.17787490e-01   1.71707225e+00
C     1.173024775800000e+00   9.750294733619440e-01   3.571665000000000e+00 -1.13922922e+00   1.82173601e+00  -1.08142672e+00
C     2.377733182600000e+00   1.695403282002830e+00   3.574804800000000e+00  2.00029751e+00  -6.04761300e-01  -3.74295870e-01
C     7.463512012799999e+00   8.241625265276603e+00  -1.640544000000013e-01  4.21325690e-01   3.49247829e+00   3.03332300e-02
C     3.826823020500000e+00   4.679503266494056e-01  -3.981899999999428e-03 -4.06195405e+00  -2.54896135e+00  -4.93873100e-01
C     3.595470001800000e+00   9.913900466614144e-01   3.244549200000000e+00  9.16184370e-01  -8.32944870e-01   2.68098530e-01
C     4.852875622299999e+00   1.645179469452719e+00   3.268781700000000e+00 -2.16943382e+00   4.60100037e+00   7.41993490e-01
C     9.899454790000000e+00   8.233010599163750e+00   2.737980000000000e-02  2.13794779e+00   5.85905360e-01  -2.69296920e-01
C     6.249429358900000e+00   3.799747802562712e-01  -2.605259999999987e-02 -1.74857342e+00   2.19513393e+00  -2.45793770e-01
C     6.058165571899999e+00   1.006346550467659e+00   3.212956500000000e+00  1.87035407e+00   2.01733765e+00  -7.44682740e-01
C     7.317149876999999e+00   1.757804321228155e+00   3.194383800000000e+00  1.34448836e+00  -1.86290292e+00   6.49300390e-01
C     1.237830192750000e+01   8.270306862187770e+00  -4.720200000001284e-03  2.18943554e+00  -1.66107109e+00   8.61238720e-01
C     8.741362047499999e+00   4.366953281498808e-01  -7.600709999999822e-02 -1.22488908e+00  -1.63039132e+00  -4.29473110e-01
C     8.584002412800000e+00   9.559591304767504e-01   3.294363900000000e+00 -8.43494200e-01   2.81338326e+00  -2.87024260e-01
C     9.780893417200000e+00   1.704312031636614e+00   3.533525400000000e+00  2.35021260e-01  -2.23326500e-02   1.59351660e-01
C     1.234315078100000e+00   1.813044802435266e+00   7.000379999999999e-02  3.60358575e+00   4.76001580e-01  -9.46184000e-01
C     2.493367811600000e+00   2.558869558762317e+00   2.292519000000000e-01  4.60232490e-01  -6.94610180e-01   4.95529810e-01
C     2.453268769200000e+00   3.097447663503794e+00   3.770449200000000e+00 -7.31087420e-01   6.57885010e-01   3.25679830e-01
C     3.638134123200000e+00   3.860035436694237e+00   3.721728000000000e+00  6.67994070e-01   3.01840120e-01  -1.10571714e+00
C     3.728192257300000e+00   1.837630492189492e+00   1.795149000000000e-01  1.31466913e+00   1.13351167e+00  -1.13739529e+00
C     4.991238438700000e+00   2.515744396404439e+00   6.136020000000000e-02  2.38738290e-01   4.44325080e-01   8.10227000e-02
C     4.844408643100000e+00   3.162094718655673e+00   3.437711700000000e+00  1.12306530e+00  -1.56888004e+00  -1.68982050e-01
C     6.093744149399999e+00   3.875378672285120e+00   3.263963700000000e+00  1.90999710e-01  -1.97320420e+00  -1.79589030e-01
C     6.247896276800000e+00   1.828333302968973e+00  -1.287488999999979e-01 -7.72964220e-01  -2.78239640e-01   7.22602470e-01
C     7.482292256199999e+00   2.547458025156845e+00  -1.753643999999994e-01 -6.53774760e-01   1.41747426e+00   4.79179850e-01
C     7.377629933800001e+00   3.188434918893224e+00   3.189983700000000e+00 -2.09096503e+00  -1.83505826e+00   7.89925470e-01
C     8.577665390800000e+00   3.881112788602650e+00   3.363009600000000e+00  1.90980218e+00  -1.14283989e+00  -2.11668150e-01
C     8.694953985500000e+00   1.854720126203745e+00  -1.175288999999999e-01  1.98948152e+00  -2.28029330e-01  -6.45439450e-01
C     9.989528009899999e+00   2.574337207735893e+00  -5.924040000000019e-02 -4.62037754e+00   1.14085073e+00   8.21785750e-01
C     9.816302057599998e+00   3.137148084928457e+00   3.622739700000000e+00  4.21774800e-02   3.29237940e-01  -2.05708950e-01
C     1.111868041990000e+01   3.837362399897426e+00   3.811948800000000e+00 -3.43960785e+00  -4.28950110e-01  -7.76201780e-01
C     2.561208309100000e+00   3.992916699910538e+00   4.409898000000000e-01 -5.68718750e-01  -1.78096910e+00  -6.50729660e-01
C     3.809153555400000e+00   4.704871471168668e+00   3.435513000000000e-01 -1.34302811e+00  -2.64070197e+00  -3.28831250e-01
C     3.608272423000000e+00   5.328880155619821e+00   3.627298500000000e+00 -7.98861380e-01  -1.08327330e+00  -4.46865480e-01
C     4.826782364800000e+00   5.919220034088961e+00   3.302009400000000e+00  1.97452858e+00   2.95024746e+00   1.59793740e-01
C     5.015955930400000e+00   3.924542708244558e+00   1.278228000000000e-01 -3.38086010e-01   1.42478249e+00   9.00940020e-01
C     6.230758906600000e+00   4.660415674807693e+00   1.171545000000000e-01  5.43488440e-01   6.16255000e-01  -1.93474743e+00
C     6.092490105300000e+00   5.246562984521258e+00   3.140266500000000e+00 -2.42959800e-02   1.41278038e+00   6.15899360e-01
C     7.346225143600000e+00   5.957069539601981e+00   3.002767500000000e+00 -7.16258090e-01   2.16574458e+00   2.41671120e-01
C     7.501067668199999e+00   4.027543155917882e+00  -1.048392000000007e-01 -3.51696063e+00  -3.20775297e+00   3.66751080e-01
C     8.649762598199999e+00   4.720864867017499e+00  -7.693379999999905e-02  4.78292551e+00  -1.41456100e-01   8.04853620e-01
C     8.602053903599998e+00   5.271817022625753e+00   3.163299300000000e+00 -1.40130693e+00   4.82601290e-01   6.80594320e-01
C     9.813838832400000e+00   5.953124175199802e+00   3.344935500000000e+00  5.31588100e-01   1.05635211e+00  -7.18341850e-01
C     9.938012517199999e+00   4.008876708228392e+00   1.070133000000000e-01  4.27072570e-01  -8.40284830e-01  -3.43597400e-02
C     1.118024063970000e+01   4.655332828819473e+00   4.426062000000000e-01 -1.79000015e+00   2.91049337e+00  -1.18210352e+00
C     1.101903225260000e+01   5.246783547161956e+00   3.682170600000000e+00  1.29199609e+00   2.58713357e+00  -6.48827850e-01
C     1.222437727030000e+01   6.103229476455311e+00   3.591081600000000e+00  3.94994270e-01  -1.83397264e+00   7.76386310e-01
C     3.704323711600000e+00   6.075530719650392e+00   1.976424000000000e-01 -1.56271003e+00   8.53640740e-01   6.38888290e-01
C     4.895724914500000e+00   6.689961452216442e+00  -5.317080000000018e-02  2.90703003e+00   4.95104365e+00  -1.93150390e-01
C     4.878776215400000e+00   7.386673577427144e+00   3.276765000000000e+00  9.64123120e-01  -1.08743738e+00  -6.85579150e-01
C     6.103933029700000e+00   8.181472632900768e+00   3.216643800000000e+00  5.26076800e-02  -3.23740088e+00   1.25896040e-01
C     6.141788034699999e+00   6.085641676569655e+00  -1.487609999999862e-02  3.00525245e+00  -2.33671940e-01  -4.78209870e-01
C     7.451571749999999e+00   6.898301438703875e+00  -1.535934000000019e-01 -4.25651480e-01  -4.92418569e+00   4.58350170e-01
C     7.332850743800000e+00   7.474627263953450e+00   2.981711100000000e+00 -4.15720150e-01  -3.49168472e+00   6.09544310e-01
C     8.583898981399999e+00   8.089898662101255e+00   2.984488500000000e+00 -7.35314420e-01   1.77785881e+00   9.14697770e-01
C     8.740295836400000e+00   6.108956334613933e+00  -5.990940000000222e-02 -4.54019540e+00   1.35258497e+00  -1.76927340e-01
C     9.894158836100001e+00   6.810521521040837e+00   8.472030000000000e-02  1.64205234e+00   1.04750905e+00   6.13048490e-01
C     9.823780966200001e+00   7.387736342671485e+00   3.055248300000000e+00 -1.10323710e-01  -5.14954440e-01   1.55686465e+00
C     1.099299943690000e+01   8.177801370734997e+00   3.213065100000000e+00  1.27676960e+00  -1.97498632e+00   2.78372580e-01
C     1.112657029330000e+01   6.164462891387601e+00   3.938154000000000e-01 -9.43038480e-01  -2.91336857e+00  -8.25795080e-01
C     1.229889821360000e+01   6.842751930707493e+00   2.835396000000000e-01  3.69564662e+00   5.84149410e-01  -9.93720170e-01
C     1.225427205080000e+01   7.551881058007686e+00   3.425861700000000e+00 -6.61411830e-01  -4.72589181e+00  -1.00890094e+00
C     1.354286450620000e+01   8.067831126537582e+00   3.222190500000000e+00 -1.58872180e+00   2.91560129e+00   1.58069735e+00
