64
Lattice="9.86 0 0 4.93 8.53901048131456 0 0 0 30 " PBC="1 1 1" Properties=species:S:1:pos:R:3:force:R:3 Energy="-516.18470509"
C     9.851373979000000e+00   2.351839883433040e-01   6.482580000000000e-02  4.91606410e-01  -2.08272160e-01  -9.62822800e-02
C     1.238166591300000e+00   9.599838222862888e-01   1.666590000000000e-02 -1.23561736e+00  -3.23072960e-01  -6.77493200e-02
C     1.256416465300000e+00   4.955658281021448e-01   3.390687600000000e+00  3.38496040e-01  -4.16747410e-01   2.32891000e-01
C     2.502570544000000e+00   1.184058643385218e+00   3.435704100000000e+00 -5.60992160e-01  -3.01364750e-01  -6.41014420e-01
C     2.441733653800000e+00   2.171033167727424e-01   9.589199999999999e-03  5.27000190e-01   1.04067050e+00   4.15509320e-01
C     3.689143403500000e+00   9.451032302832121e-01   6.604860000000000e-02 -8.45649380e-01  -7.82926050e-01  -8.53075720e-01
C     3.740668953399999e+00   4.890021469164832e-01   3.347917500000000e+00 -4.78823970e-01  -4.93910350e-01   5.21511740e-01
C     4.933290873599999e+00   1.222339198147267e+00   3.359808600000000e+00  1.05487198e+00  -1.20857110e-01  -3.49560070e-01
C     4.896877400600000e+00   2.380051066256864e-01  -1.575000000000060e-02  1.40137713e+00  -1.17554509e+00   5.38689000e-01
C     6.165291612499999e+00   9.221821352319576e-01   1.733790000000000e-02 -1.00938290e+00   1.25853800e-01   2.55609100e-02
C     6.171486896999999e+00   4.804797021168144e-01   3.325757700000000e+00 -7.32785890e-01   6.11836800e-01   4.57796630e-01
C     7.373225028099999e+00   1.198066633907343e+00   3.337019100000000e+00  2.01633560e+00  -7.87210480e-01   2.35219910e-01
C     7.389616144199999e+00   2.007038055854832e-01   4.394910000000000e-02  2.73475850e-01   7.07811540e-01  -1.16269470e-01
C     8.621506303200000e+00   9.425674003409664e-01   8.572080000000000e-02 -1.57411870e-01  -1.50595660e-01  -2.64575280e-01
C     8.646183319600000e+00   4.531599919871024e-01   3.391066500000000e+00 -1.17777504e+00   1.93866728e+00  -4.04719800e-01
C     9.881600351299999e+00   1.189808898432554e+00   3.359578500000000e+00 -6.67949480e-01  -1.27656258e+00   5.27851030e-01
C     1.108728746170000e+01   2.388693142593358e+00  -3.588599999999786e-02 -3.67296430e-01  -5.91325030e-01   7.13453630e-01
C     2.473377647600000e+00   3.054599933596411e+00  -1.887539999999888e-02 -1.11389909e+00   1.60789971e+00   1.89083900e-02
C     2.457934373300000e+00   2.578551550968193e+00   3.420951300000000e+00  1.32308639e+00   2.49681502e+00   1.70851870e-01
C     3.718870218900000e+00   3.354765023181572e+00   3.422971200000000e+00 -1.20080594e+00  -5.71170180e-01   1.34071390e-01
C     3.674125243100000e+00   2.347116359005818e+00   4.604040000000000e-02  1.44537868e+00   1.09767309e+00  -3.76375460e-01
C     4.928349633200000e+00   3.098040612391525e+00   1.681020000000000e-02 -6.49336010e-01  -2.27239561e+00   4.82537380e-01
C     4.946457473900000e+00   2.662454672483205e+00   3.354818100000000e+00 -1.18252880e-01  -9.11641740e-01   6.95827800e-02
C     6.185902857899999e+00   3.353107088906775e+00   3.294015600000000e+00 -2.20224100e-01  -9.00834600e-02   4.98971030e-01
C     6.147608688500000e+00   2.354893689751003e+00   4.553250000000000e-02 -1.91075170e-01  -3.54494190e-01  -3.53565800e-01
C     7.360020565400000e+00   3.059322177172061e+00   3.490440000000000e-02  1.10104423e+00   4.48941640e-01   5.97343550e-01
C     7.391260003399999e+00   2.608431341829914e+00   3.328010700000000e+00  6.58756310e-01   7.19692400e-01  -1.87654510e-01
C     8.645026396500000e+00   3.317350665642614e+00   3.342224400000000e+00 -9.90001910e-01  -1.00218620e-01   4.01014580e-01
C     8.609719905700000e+00   2.371596335810302e+00   8.369789999999999e-02  2.76754250e-01   1.08098500e-02  -3.91191000e-01
C     9.846317524500000e+00   3.113893712298169e+00   4.661550000000000e-02 -3.51185400e-02  -1.20227480e+00  -7.74092320e-01
C     9.857280118999999e+00   2.582652069190794e+00   3.387054300000000e+00  2.11476850e-01   1.40302832e+00  -3.29647700e-01
C     1.107942159740000e+01   3.307185229836488e+00   3.390759000000000e+00  5.70040920e-01  -3.87591190e-01   1.78566260e-01
C     1.230774889470000e+01   4.507644665260536e+00  -9.469800000001527e-03  5.07859970e-01  -1.26456502e+00   3.23018650e-01
C     3.674390526400000e+00   5.188282615583268e+00   1.682880000000000e-02  1.31170571e+00   6.26956210e-01   2.67563700e-01
C     3.713395059500000e+00   4.784541890578851e+00   3.467106600000000e+00 -1.16870116e+00  -9.12344080e-01  -1.08380410e+00
C     4.922174512400000e+00   5.485953374817115e+00   3.335937000000000e+00  1.40425358e+00   4.56447390e-01   3.07446430e-01
C     4.934137749000000e+00   4.481188846821087e+00   5.337030000000000e-02 -3.08101920e-01   1.37131312e+00  -4.12031800e-01
C     6.182951611999999e+00   5.209924054523989e+00   5.856900000000000e-02 -1.84472200e+00  -5.47293800e-01   3.12399070e-01
C     6.195878466400000e+00   4.774031137188913e+00   3.313656600000000e+00 -2.08830245e+00  -1.25162380e-01  -1.25492060e-01
C     7.387121662800000e+00   5.471183448389859e+00   3.303381300000000e+00  1.86319388e+00   1.23873095e+00   8.86027590e-01
C     7.378488345399999e+00   4.484657734438482e+00   8.496479999999999e-02  4.97105620e-01   8.43029700e-02  -6.53152890e-01
C     8.599713583300000e+00   5.213202266037365e+00   4.026360000000000e-02  5.50193250e-01  -2.51645200e-01   1.28542070e-01
C     8.627468941000000e+00   4.746649775403536e+00   3.378845700000000e+00 -5.75064300e-02   4.74880000e-03  -1.06821609e+00
C     9.861447004300000e+00   5.452913808517375e+00   3.306414600000000e+00 -1.18362670e-01   4.02907240e-01   9.26913940e-01
C     9.847093161400000e+00   4.522458396811555e+00  -3.266670000000005e-02 -3.64140200e-01  -9.90547600e-02   1.12748023e+00
C     1.108675802900000e+01   5.219210569981407e+00   6.431429999999999e-02 -3.98570780e-01  -1.06018180e+00  -7.19149340e-01
C     1.107124938290000e+01   4.731672094851302e+00   3.360779100000000e+00  8.84660850e-01  -4.12487200e-02   8.25020000e-04
C     1.230617809810000e+01   5.455662174430468e+00   3.383655900000000e+00  5.48288190e-01   1.96032710e-01  -1.10586300e-02
C     1.357609975610000e+01   6.619932344149124e+00   4.546920000000000e-02 -1.26376699e+00  -4.19841420e-01  -2.01505260e-01
C     4.924460504100000e+00   7.330673636627941e+00   6.261840000000000e-02 -1.30196760e-01   9.45214740e-01   3.15586900e-02
C     4.930380891800000e+00   6.917799927574537e+00   3.310992300000000e+00  1.07444274e+00  -8.34623500e-01   8.48522760e-01
C     6.207599344200000e+00   7.618711794309617e+00   3.396353700000000e+00 -1.44286517e+00   1.37652100e-02  -5.54677700e-01
C     6.133226251599999e+00   6.619852333620926e+00   7.949009999999999e-02  1.04088009e+00   4.10557740e-01  -4.25606690e-01
C     7.347663027399999e+00   7.353173673072427e+00   3.890039999999999e-02  1.07164430e+00  -8.42147530e-01   2.82961880e-01
C     7.437694687399999e+00   6.930111131324181e+00   3.386394600000000e+00 -4.59657770e-01  -2.08130357e+00  -6.65930010e-01
C     8.687418628400000e+00   7.581689889692319e+00   3.326577300000000e+00 -1.03746221e+00   1.76117961e+00   6.51369770e-01
C     8.601881452200001e+00   6.630221766387420e+00   7.145609999999999e-02 -7.90978880e-01   2.77321380e-01  -6.13194030e-01
C     9.824979153399999e+00   7.328852180302452e+00   7.713300000000000e-03  1.04349363e+00   5.40999770e-01   6.65011960e-01
C     9.893063932399999e+00   6.889174602742432e+00   3.362384400000000e+00  2.59173260e-01  -9.98724990e-01  -4.20565230e-01
C     1.111717647410000e+01   7.603469062872082e+00   3.381935700000000e+00 -5.27960460e-01  -1.48788240e-01  -8.04348730e-01
C     1.108537407940000e+01   6.600733489156206e+00   1.088448000000000e-01 -1.08414210e-01   2.30065336e+00  -1.21402518e+00
C     1.233936528050000e+01   7.322916799507909e+00   1.813830000000000e-02 -8.20459980e-01  -2.10710640e-01   7.37509370e-01
C     1.232358375890000e+01   6.879130079324703e+00   3.304632600000000e+00 -4.20562000e-03  -2.41137170e-01   1.08442432e+00
C     1.354572637120000e+01   7.596053359220726e+00   3.376575900000000e+00  8.73430460e-01  -2.35374810e-01  -5.92475420e-01
