64
Lattice="9.86 0 0 4.93 8.53901048131456 0 0 0 30 " PBC="1 1 1" Properties=species:S:1:pos:R:3:force:R:3 Energy="-515.24570242"
C     9.822303839600000e+00   1.159037464096512e-01   5.414040000000000e-02  7.98405980e-01   8.09842610e-01  -5.01639990e-01
C     1.221663909300000e+00   8.417964029138664e-01   5.392050000000000e-02 -9.16975740e-01  -4.38302760e-01   3.58250930e-01
C     1.227898387300000e+00   5.582770041881032e-01   3.347380500000000e+00  8.81165460e-01   2.00635037e+00   3.42930640e-01
C     2.474478812400000e+00   1.297008062948998e+00   3.386914800000000e+00  7.40728160e-01  -1.71042308e+00  -2.06364940e-01
C     2.461188419800000e+00   1.534972523884800e-01   4.315410000000000e-02 -6.68020540e-01  -1.07239219e+00  -3.84844720e-01
C     3.668642294300000e+00   8.583298057854520e-01  -3.107310000000041e-02  1.94400110e-01   5.33468690e-01   3.86274060e-01
C     3.729044506400000e+00   5.196937415045376e-01   3.445323600000000e+00 -5.81341560e-01   3.14163495e+00  -4.35653960e-01
C     4.954027488900000e+00   1.277937122333071e+00   3.379230900000000e+00  3.35137680e-01  -1.63283996e+00   2.61304060e-01
C     4.902140717900000e+00   1.266593986201544e-01  -4.209000000000174e-02 -1.19345788e+00  -4.08159000e-03   6.99750610e-01
C     6.086814985099999e+00   8.373969339343608e-01   6.850890000000000e-02  2.01732004e+00   1.50401837e+00  -1.09146514e+00
C     6.224047796200000e+00   5.933930870563696e-01   3.387646200000000e+00 -1.61008365e+00  -6.76613140e-01   3.64307620e-01
C     7.463607704100000e+00   1.264451804642426e+00   3.451249800000000e+00 -1.10802972e+00   7.59923420e-01   3.50926650e-01
C     7.355840664900000e+00   1.777307079604056e-01  -2.500350000000040e-02 -7.18248240e-01  -9.79096710e-01   4.41447810e-01
C     8.601497651699999e+00   8.472514643689096e-01  -1.978500000000238e-02 -2.54718470e-01  -7.74344300e-02   5.18768290e-01
C     8.664057675499999e+00   5.833740098898712e-01   3.540015600000000e+00  8.98548520e-01  -1.57514649e+00  -1.56303074e+00
C     9.852180280500001e+00   1.295726784426474e+00   3.343241700000000e+00  1.99353286e+00   5.81666440e-01   8.86590320e-01
C     1.106409067780000e+01   2.251550571587117e+00   7.937820000000000e-02 -1.69560335e+00   9.74759700e-01  -1.53077683e+00
C     2.389304780000000e+00   2.982053696019799e+00  -6.866219999999856e-02  1.38310573e+00   9.08368320e-01   1.03114617e+00
C     2.519005783600000e+00   2.708484464645960e+00   3.324173700000000e+00  2.99790110e-01  -3.10903220e-01   1.31726820e-01
C     3.774088782500000e+00   3.405801322578855e+00   3.304788300000000e+00 -2.07396935e+00   5.07582510e-01   5.81793010e-01
C     3.625289501199999e+00   2.303598231385651e+00  -2.252999999999972e-02  4.35139910e-01  -1.70711459e+00  -2.98190200e-01
C     4.856953373200000e+00   2.976608710597121e+00  -6.975900000000479e-03  7.94030150e-01   1.46355165e+00   5.60668000e-02
C     4.953533749400000e+00   2.664349051958193e+00   3.373458900000000e+00  1.34592678e+00   1.53482719e+00   3.11317050e-01
C     6.213762780900000e+00   3.372273239489555e+00   3.504587400000000e+00 -1.56501560e-01   1.79852580e-01  -1.28594457e+00
C     6.099663896199999e+00   2.281143878647233e+00   4.966650000000000e-02 -4.94781100e-01  -5.27470530e-01  -1.75777450e-01
C     7.323212199399999e+00   3.006578075678778e+00   1.830720000000000e-02  7.60104070e-01  -1.81969247e+00  -6.75767300e-02
C     7.461459407300000e+00   2.680373785975485e+00   3.465989700000000e+00 -3.02451580e-01   8.26229510e-01   4.10731250e-01
C     8.664830650199999e+00   3.446557763429581e+00   3.461543700000000e+00  8.85572070e-01  -9.35527910e-01  -1.16600583e+00
C     8.582933638100000e+00   2.249524179010108e+00  -9.512999999998328e-03 -1.81901290e-01   2.16431459e+00   3.35978800e-02
C     9.806754866099999e+00   2.992024442386980e+00  -3.358529999999860e-02  6.94651620e-01  -1.22872022e+00   4.45941320e-01
C     9.935884926400000e+00   2.749218789459542e+00   3.341275800000000e+00 -2.38898959e+00  -1.57282901e+00   6.54903090e-01
C     1.115243770750000e+01   3.413331534360748e+00   3.356883600000000e+00  5.54698410e-01   1.19462536e+00  -9.34758550e-01
C     1.229930015650000e+01   4.421237051971739e+00  -3.889709999999980e-02 -4.26128590e-01  -6.38986940e-01  -2.17590200e-01
C     3.652027504100000e+00   5.154955284630351e+00   1.171290000000000e-02 -1.28664210e-01  -1.58697115e+00  -8.61700940e-01
C     3.722376533499999e+00   4.849416510360022e+00   3.359514900000000e+00 -4.19405630e-01  -1.59081697e+00  -4.33452590e-01
C     4.937673890099999e+00   5.490015638272766e+00   3.375456300000000e+00  2.71715373e+00   2.52941647e+00   2.21277370e-01
C     4.880784253700000e+00   4.410817580603834e+00  -3.225390000000061e-02  6.70106730e-01   1.20920765e+00   4.23473180e-01
C     6.139940517199999e+00   5.158711168389980e+00  -1.892159999999876e-02 -1.13412613e+00  -1.19895204e+00  -3.28283860e-01
C     6.203962581799999e+00   4.791857517027380e+00   3.423905400000000e+00  8.71649500e-02   7.95155490e-01   8.50925320e-01
C     7.446237785799999e+00   5.569336129033476e+00   3.526055100000000e+00 -1.47932804e+00  -7.99844160e-01  -1.25484280e+00
C     7.332961274400000e+00   4.401941364599979e+00   2.802900000000000e-03  2.27252435e+00   1.67254343e+00   1.28026360e-01
C     8.651947081199999e+00   5.125305193150543e+00   2.552880000000000e-02 -3.09474716e+00  -1.46158650e-01  -4.10110170e-01
C     8.664281152399999e+00   4.855896680023189e+00   3.358140600000000e+00  1.24377240e-01   3.88073400e-02   1.67567998e+00
C     9.917850148299999e+00   5.536625143857007e+00   3.380284200000000e+00 -7.24023290e-01   9.93287690e-01  -2.53273060e-01
C     9.848120326900000e+00   4.415343426938444e+00  -8.327789999999879e-02 -4.14299040e-01  -8.34858490e-01   5.97287160e-01
C     1.107513777250000e+01   5.115454163710290e+00  -7.098150000000203e-02 -1.86159320e-01  -4.09408950e-01   2.45125580e-01
C     1.115045160770000e+01   4.849639720093968e+00   3.292523400000000e+00 -6.77381480e-01  -4.70544420e-01   7.05608110e-01
C     1.235042282680000e+01   5.565921378742524e+00   3.331628400000000e+00  1.03978123e+00   8.45619130e-01   1.48966140e-01
C     1.346234547840000e+01   6.554623857245464e+00  -4.427249999999816e-02  2.56887162e+00   9.82349650e-01   4.41760010e-01
C     4.900910633600000e+00   7.246181579560123e+00   7.862700000000000e-03 -1.24050053e+00   4.05081630e-01  -5.54244780e-01
C     5.008795844900000e+00   6.956809457661263e+00   3.385566000000000e+00 -1.11990242e+00  -8.47548860e-01   2.65129080e-01
C     6.219036401900000e+00   7.703618676506553e+00   3.411507600000000e+00 -1.40318086e+00  -1.02693783e+00   9.77769900e-02
C     6.150695164300000e+00   6.589709882796840e+00  -7.128990000000002e-02 -7.31711350e-01  -1.78300111e+00   1.05982661e+00
C     7.382636447399999e+00   7.246158695012037e+00   2.373120000000000e-02 -5.60885960e-01   1.85926518e+00   3.74187000e-03
C     7.411501548100000e+00   6.994103244372244e+00   3.505907100000000e+00  1.12935890e+00  -9.43361550e-01  -4.41259400e-02
C     8.649891369799999e+00   7.679402982076425e+00   3.508011300000000e+00 -4.33940000e-02  -8.79054700e-01  -1.59178720e-01
C     8.593583621299999e+00   6.561433803493369e+00   7.185120000000000e-02  2.46664970e-01  -1.89714860e+00  -6.87617720e-01
C     9.803960887199999e+00   7.238749566398750e+00   3.648000000000000e-04  1.02888835e+00   5.34800520e-01   2.70551100e-02
C     9.869229600899999e+00   6.968273762351502e+00   3.466675500000000e+00  1.53745383e+00  -4.11728400e-02  -5.55658340e-01
C     1.109926741100000e+01   7.714659360886878e+00   3.391615800000000e+00  1.60396990e+00  -7.61601320e-01   4.16700850e-01
C     1.101661965850000e+01   6.497996299175982e+00  -2.458619999999812e-02  1.67816868e+00   3.14215679e+00  -1.43045990e-01
C     1.227327557390000e+01   7.303268707173639e+00  -4.222260000000233e-02 -1.33670024e+00  -1.84777253e+00   4.97348900e-02
C     1.239148321920000e+01   7.011206967753789e+00   3.393189000000000e+00 -1.66001868e+00  -1.24483765e+00  -6.89507900e-02
C     1.364064967580000e+01   7.667070772361000e+00   3.451306200000000e+00 -5.73974370e-01   1.16983810e+00   5.83283000e-03
