76
Lattice="10.7446858958278 0 0 5.37234294791388 9.3051709414712 0 0 0 30 " PBC="1 1 1" Properties=species:S:1:pos:R:3:force:R:3 Energy="-608.663489"
C     5.537934461854133e+00   9.261778880769173e+00  -3.378407999999986e-01 -2.80365631e+00   3.67973268e+00   7.06689490e-01
C     1.253189919991929e+01   8.515459785715789e+00   1.336110000000000e-02  1.28164341e+00   1.48318860e+00  -6.21809740e-01
C     1.395251703289423e+01   8.380036142975115e+00   1.210260000000000e-02  4.63586920e-01  -1.96647410e+00  -8.48272570e-01
C     1.457343362785491e+01   7.070276571627382e+00  -1.447649999999996e-01 -3.25044321e+00   6.11099470e-01  -3.12648080e-01
C     8.287074953677365e+00   8.996877785621903e+00  -4.170107999999999e-01 -3.25699350e-01   9.84337320e-01   8.18062400e-01
C     9.711291289407079e+00   8.874926541574998e+00  -2.163278999999996e-01 -1.94940308e+00  -2.69977840e+00  -9.55540940e-01
C     1.027229895408884e+01   7.575487893627074e+00  -2.729052000000003e-01  7.51618550e-01  -8.98001340e-01   7.11041950e-01
C     1.173219860658617e+01   7.407790382101522e+00  -2.013891000000001e-01 -3.12726902e+00  -2.25205265e+00  -6.21066300e-01
C     1.222603291257546e+01   6.061326098722412e+00  -4.320908999999986e-01  1.38241628e+00   9.53482580e-01   2.31055570e-01
C     1.369507392894280e+01   5.944774087061732e+00  -4.262133000000006e-01 -1.96518354e+00   1.09631968e+00   1.77899342e+00
C     6.080920440939832e+00   8.017763785025787e+00  -1.943039999999989e-01 -2.55471151e+00   7.07717300e-01  -4.05505730e-01
C     7.408176355043940e+00   7.897917649800639e+00  -2.767781999999990e-01  4.52223249e+00  -1.45443843e+00   4.25865640e-01
C     8.006421071797890e+00   6.613985045655421e+00  -1.613061000000009e-01 -1.62362995e+00  -2.04756925e+00  -1.65037310e+00
C     9.378237830777342e+00   6.429760992230173e+00  -3.153965999999997e-01  1.80691610e+00   7.56621510e-01   8.44694400e-02
C     9.929488783427610e+00   5.131877052242904e+00  -4.649327999999997e-01  1.18225846e+00  -8.53772380e-01  -1.07749400e-02
C     1.135552086362756e+01   4.916020628517383e+00  -5.592827999999983e-01  4.52043190e-01  -3.80168700e-01   1.15719905e+00
C     1.190966347987067e+01   3.522792464165627e+00  -4.696610999999997e-01  2.85507893e+00   4.64430540e+00  -1.08543671e+00
C     5.192159778629661e+00   6.945576580084800e+00  -1.579227000000003e-01  1.16079868e+00  -2.30010939e+00  -1.36231870e-01
C     5.752015022025221e+00   5.626140468424850e+00  -2.775581999999979e-01 -8.44590890e-01   2.76044300e-01   4.40780130e-01
C     7.128393276233229e+00   5.422065600781591e+00  -3.031602000000007e-01  2.39270776e+00   4.20732290e-01   7.23784670e-01
C     7.700705962184678e+00   4.086380148264247e+00  -3.465765000000012e-01  2.28325730e-01   1.32124455e+00   1.51707480e-01
C     9.125384373131521e+00   3.962926584369079e+00  -4.393500000000010e-01 -4.20719640e-01  -4.79853070e-01   2.96264330e-01
C     9.732719846284885e+00   2.660580349657534e+00  -4.344660000000005e-01 -3.01989116e+00  -1.94363204e+00   5.76726910e-01
C     1.108976738981363e+01   2.422108266272599e+00  -4.766429999999993e-01  4.11151070e-01   1.06271431e+00  -5.24296300e-02
C     3.448390896997281e+00   4.673783766021833e+00  -3.306830999999981e-01  1.98181897e+00  -2.88853613e+00  -1.18472428e+00
C     4.899139246790152e+00   4.527314234013412e+00  -2.968092000000020e-01 -3.37295720e-01  -3.59573084e+00  -9.45088650e-01
C     5.510567908037121e+00   3.121891457041367e+00  -4.195178999999989e-01 -4.10572808e+00   1.30756238e+00   1.62614907e+00
C     6.855219146272750e+00   2.940626541026749e+00  -2.771802000000001e-01  2.06099372e+00   5.77121420e-01  -6.55645830e-01
C     7.443805840935198e+00   1.648858703794923e+00  -1.943382000000007e-01  1.44328665e+00  -4.07065200e-01   1.81294210e-01
C     8.894909248873635e+00   1.451187933947700e+00  -2.447469000000027e-01 -6.68995880e-01   2.05383692e+00  -3.58368450e-01
C     9.452814063161197e+00   1.382588352743832e-01  -1.726074000000004e-01  1.12197625e+00   1.74477404e+00  -3.60827800e-02
C     2.641631152474723e+00   3.468876070498241e+00  -4.771329000000009e-01 -1.01349819e+00  -6.90815890e-01   3.53233630e-01
C     3.243116627666403e+00   2.142543059189273e+00  -5.128596000000023e-01 -2.63509522e+00   5.24756660e-01   4.18774020e-01
C     4.603393056754960e+00   1.959736369401606e+00  -3.590474999999991e-01  1.99571882e+00   1.09119572e+00  -4.31624710e-01
C     5.144316217318148e+00   6.500607306957504e-01  -2.036426999999996e-01  3.10656803e+00   3.06837703e+00   7.29670600e-02
C     6.610410933364843e+00   5.358940065538306e-01  -8.561849999999893e-02 -1.77548889e+00  -1.41405945e+00   7.03503900e-02
C     9.377932842868071e-01   1.179177688202270e+00  -4.593309000000012e-01  1.48633150e-01  -3.67147080e+00  -1.18497110e-01
C     2.334092992004858e+00   9.809145511730059e-01  -5.233905000000014e-01  1.64773054e+00   1.62249287e+00   3.57608280e-01
C     1.601006238590659e+01   9.295551626489067e+00   3.751199100000000e+00  9.32209130e-01  -2.13691499e+00  -1.29532233e+00
C     1.180843107857808e+01   8.786290973251413e+00   3.577716300000000e+00 -2.31613270e-01  -1.84884585e+00  -2.12233360e-01
C     1.325213929527555e+01   8.956273183397862e+00   3.595517100000000e+00 -3.34241351e+00   2.59936651e+00   3.02448990e-01
C     1.404862540092797e+01   7.851268966844230e+00   3.665187900000000e+00  1.94318498e+00  -2.63766021e+00  -1.03209458e+00
C     7.565749000364042e+00   8.294871217308730e+00   3.683257500000000e+00 -1.12202531e+00  -4.80651360e-01   1.85211040e-01
C     8.959034071559129e+00   8.469534021489709e+00   3.748443000000000e+00  4.53957350e-01  -1.46156111e+00  -5.97039410e-01
C     9.821498189597641e+00   7.308238452489675e+00   3.678636600000000e+00 -2.99338200e-01  -4.40882400e-02   1.63155700e-02
C     1.123527649276294e+01   7.441881085512435e+00   3.548852700000000e+00  2.60685650e-01   1.01302024e+00   1.11230411e+00
C     1.207058604963725e+01   6.299410342582568e+00   3.673893300000000e+00  1.08471910e+00   5.40439060e-01   6.59218090e-01
C     1.353503596916637e+01   6.501934317385257e+00   3.694551000000000e+00 -3.47317809e+00   1.05453267e+00  -4.45885000e-03
C     4.726157056463135e+00   7.986520556974224e+00   3.563912100000000e+00 -1.40916200e-02  -3.89941450e-01   1.62764744e+00
C     5.572297740235506e+00   6.817177131731603e+00   3.637885500000000e+00 -1.59908750e-01   5.98110210e-01  -1.05381680e+00
C     7.012937220916510e+00   6.992230194781806e+00   3.641982000000000e+00 -6.84642500e-01  -1.17598265e+00   2.03856820e-01
C     7.858606159254442e+00   5.814638572966259e+00   3.699552300000000e+00 -1.05504352e+00   2.25194579e+00   2.63974540e-01
C     9.258728450151706e+00   5.992025279836505e+00   3.751816799999999e+00 -7.48155700e-02   2.31396300e-02  -4.44126270e-01
C     1.007881638657549e+01   4.840101692903820e+00   3.803988900000000e+00  9.71723910e-01   2.65158450e-01   1.52078720e-01
C     1.149140305035105e+01   5.004796146611906e+00   3.894995700000000e+00 -1.11899986e+00   1.67139415e+00  -1.62827999e+00
C     1.228672024162440e+01   3.878311873460377e+00   3.821054700000000e+00  1.20188764e+00   5.28403800e-01   1.02993194e+00
C     3.542415655541289e+00   5.345819681461196e+00   3.763986300000000e+00  1.40494985e+00   6.22929430e-01  -7.20615100e-01
C     4.964259618347712e+00   5.514887565511082e+00   3.589632300000000e+00  5.19961290e-01  -1.94159690e-01   2.10853257e+00
C     5.824441350207343e+00   4.389737746924060e+00   3.771030900000000e+00  1.05849284e+00   6.60483460e-01  -1.69362651e+00
C     7.240692435385668e+00   4.569190108691275e+00   3.753170100000000e+00  1.22906956e+00  -1.79870950e+00  -4.88945640e-01
C     8.119516627069236e+00   3.412560896814233e+00   3.671215500000000e+00 -4.84520110e-01  -1.59448330e-01   8.31947970e-01
C     9.563268896978903e+00   3.517787119665291e+00   3.747340500000000e+00 -2.30706223e+00   1.35032660e+00   4.61816110e-01
C     1.038276061078209e+01   2.391909822814179e+00   3.882413100000000e+00  2.64924710e-01  -3.17321430e-01  -1.25033194e+00
C     1.178754190493246e+01   2.601342980091529e+00   3.839094000000000e+00 -3.67710170e-01  -3.21979590e+00   1.09411206e+00
C     2.911882512976684e+00   4.083604415772846e+00   3.853349100000000e+00  3.84200639e+00  -1.57181802e+00  -1.33895569e+00
C     3.843343792692333e+00   2.961123785469962e+00   3.691894800000000e+00  2.94098380e-01  -8.55106270e-01   4.47802520e-01
C     5.322121750869105e+00   3.100292759513986e+00   3.616185300000000e+00 -2.60611716e+00  -2.24885725e+00   7.92885860e-01
C     6.121515583419776e+00   1.873653023363443e+00   3.588135900000000e+00 -6.07168210e-01   1.78112414e+00   6.34551990e-01
C     7.545512942450847e+00   2.098877148777682e+00   3.679351200000000e+00 -1.76563253e+00   1.32767673e+00  -7.60864810e-01
C     8.372347037363804e+00   1.024493551288017e+00   3.668857200000000e+00  2.43208118e+00  -4.30402592e+00   9.56902000e-03
C     9.800945754408120e+00   1.091434206616702e+00   3.759887400000000e+00 -6.07684610e-01   2.35414978e+00   5.54615140e-01
C     1.914370640521684e+00   1.428912564389562e+00   3.929023200000000e+00 -1.23983428e+00   1.71820500e-02  -2.20409449e+00
C     3.310955082416085e+00   1.617484365884816e+00   3.741985500000000e+00  8.54213300e-02   2.18848900e-01   6.50184420e-01
C     4.145684802315797e+00   4.391692670286844e-01   3.728023500000000e+00 -1.41794549e+00   8.76026770e-01  -3.00466480e-01
C     5.504180138546142e+00   5.480777321241196e-01   3.629673300000000e+00  3.89728835e+00   2.50012067e+00  -3.69529110e-01
C     1.308304705730835e+00   9.477474790295980e-02   3.720631500000000e+00  1.13629750e+00   2.50791284e+00   1.44490345e+00
