64
Lattice="9.86 0 0 4.93 8.53901048131456 0 0 0 30 " PBC="1 1 1" Properties=species:S:1:pos:R:3:force:R:3 Energy="-511.29942265"
C     1.326281911000000e-01   1.044103236936760e-01  -9.396600000000177e-02  2.11630230e+00  -4.70666680e-01   3.76590100e-01
C     1.446507208100000e+00   8.135179326874600e-01   2.461830000000000e-02 -4.24109555e+00   1.65129697e+00  -2.42052830e-01
C     1.106997433700000e+00   5.421410068642568e-01   3.192517800000000e+00 -8.18054100e-01   3.48207671e+00  -1.34211376e+00
C     2.311108866800000e+00   1.337439082110331e+00   3.361709400000000e+00 -1.24390523e+00  -5.48596230e-01   8.67563210e-01
C     2.590879168999999e+00   1.692274759343168e-01  -2.307734999999980e-01  1.48321692e+00  -4.82772283e+00  -4.17937860e-01
C     3.798771369800000e+00   8.226858412893120e-01  -2.455298999999975e-01  2.36843559e+00   9.25940600e-01   8.91116260e-01
C     3.514323680800000e+00   6.082992960908864e-01   3.423427500000000e+00 -8.36559400e-01  -1.17050774e+00  -1.69703250e-01
C     4.718086217800000e+00   1.254115930187120e+00   3.446471700000000e+00  3.38555643e+00   1.92316837e+00  -2.65376490e-01
C     5.081566934000000e+00   1.674648533910352e-01  -1.564751999999991e-01 -1.10297076e+00  -2.11064146e+00  -9.99864090e-01
C     6.295362514000000e+00   8.245879912638368e-01  -1.818330000000010e-01  2.37090370e+00   7.54259570e-01   1.01934517e+00
C     6.014589794899999e+00   5.693457819129080e-01   3.321292800000000e+00 -1.00473708e+00   1.65558637e+00   1.28571630e-01
C     7.185327247899999e+00   1.343778699660998e+00   3.138723900000000e+00  2.50174534e+00  -1.79882062e+00  -3.45662360e-01
C     7.543749734800000e+00   7.047621065605121e-02  -2.782110000000060e-02 -6.69190980e-01   1.22199745e+00  -1.64646280e-01
C     8.779748457199998e+00   7.985158305652529e-01  -2.225699999999975e-02  3.85473560e-01   1.53234441e+00  -4.74766550e-01
C     8.492415732200001e+00   6.329447589184720e-01   2.943405600000000e+00 -1.48698020e+00   1.68371447e+00   1.45365864e+00
C     9.766707884500001e+00   1.359807447013215e+00   3.035180400000000e+00 -1.30565817e+00  -2.87333567e+00   3.55049550e-01
C     1.473850565700000e+00   2.232100157345458e+00   3.056385000000000e-01 -2.44597916e+00   3.55539210e-01  -5.89914910e-01
C     2.654195701300000e+00   2.967978076534671e+00   4.281525000000000e-01  1.19670342e+00  -1.98494554e+00  -1.72849456e+00
C     2.256616442900000e+00   2.765286901650073e+00   3.643699200000000e+00  1.47186930e-01  -1.15757246e+00  -4.10732080e-01
C     3.537742018900000e+00   3.389340672076559e+00   3.787528800000000e+00  5.68324650e-01   1.29090782e+00  -1.00028911e+00
C     3.863419741600000e+00   2.190688603610707e+00  -6.449999999997402e-03 -2.55060500e-01   3.37207782e+00   1.84925889e+00
C     5.122519852400000e+00   2.927684108491543e+00   3.179190000000000e-02 -9.91399870e-01  -4.63341810e-01  -8.91051320e-01
C     4.759996837999999e+00   2.704730544858742e+00   3.516833100000000e+00 -3.68903800e-02  -8.13574010e-01   4.18250040e-01
C     6.001373993200000e+00   3.436882210654693e+00   3.378078600000000e+00 -5.15994080e-01  -1.55784170e-01   4.15796470e-01
C     6.369474365899999e+00   2.272785126678467e+00  -1.412505000000017e-01 -1.10027852e+00  -1.89522347e+00   1.39749260e-01
C     7.590783167300000e+00   2.957761492055770e+00  -9.666029999999992e-02  8.65893320e-01   2.81256620e-01  -3.07621420e-01
C     7.229076560899999e+00   2.729256888490132e+00   3.227160300000000e+00 -4.65593830e-01   6.31918240e-01  -6.17557640e-01
C     8.480089992700000e+00   3.398326955925501e+00   3.160224900000000e+00 -8.58076810e-01   2.55303798e+00   1.51982129e+00
C     8.867337400800000e+00   2.288146038021043e+00  -2.684280000000072e-02 -1.68300063e+00  -2.09591175e+00   3.02514730e-01
C     1.006974670210000e+01   2.976261770601319e+00   2.132265000000000e-01 -5.31832500e-01   4.49914970e-01   4.97719900e-01
C     9.700849592099999e+00   2.747994551527025e+00   3.186942900000000e+00  1.54507558e+00   2.83974500e-01   9.43452170e-01
C     1.086466946630000e+01   3.490874459309838e+00   3.591069300000000e+00  1.64238379e+00  -2.20900850e-01   2.67829610e-01
C     2.589558027600000e+00   4.374915396430779e+00   5.481639000000000e-01  2.09347803e+00   3.43954240e-01  -5.31447930e-01
C     3.831734631600000e+00   5.078566748508053e+00   3.450999000000000e-01  5.48815850e-01   2.21373240e-01  -7.39710710e-01
C     3.623125921400000e+00   4.833079419339371e+00   3.768428100000000e+00 -2.52089750e+00  -1.39032000e-03  -3.38692990e-01
C     4.749310471399999e+00   5.579107489505951e+00   3.428052000000000e+00  1.72405332e+00   7.25159340e-01   8.53291000e-03
C     5.054100572899999e+00   4.336614262653472e+00   6.696210000000000e-02 -8.74503200e-02   1.68274303e+00   4.64569190e-01
C     6.265541437000000e+00   5.079020511524960e+00  -1.506723000000001e-01  1.66395956e+00  -4.21790310e-01   1.01602420e-01
C     6.024565206199999e+00   4.851812642090814e+00   3.367052100000000e+00 -7.91920380e-01   7.95389990e-01  -3.17716160e-01
C     7.277302560400000e+00   5.534785414049091e+00   3.279224100000000e+00 -8.27784760e-01   1.60484298e+00  -2.86335280e-01
C     7.532352757999998e+00   4.357625778791085e+00  -1.786382999999994e-01  6.88454160e-01   1.66439135e+00   7.01490420e-01
C     8.797962638000000e+00   5.114981529480223e+00  -6.136199999999903e-02 -2.14960153e+00   3.47235890e-01  -6.05970030e-01
C     8.503768930600000e+00   4.843306079850638e+00   3.398955000000000e+00  3.40111310e-01   1.04090730e-01  -6.92521390e-01
C     9.724400300699999e+00   5.638235782184606e+00   3.586065600000000e+00 -9.90640490e-01  -7.32001320e-01   2.38062100e-02
C     9.961019052399999e+00   4.456651487866178e+00   3.376065000000000e-01  2.08151774e+00  -3.03687368e+00  -1.00736544e+00
C     1.124181698060000e+01   5.082941625137376e+00   4.862520000000000e-01 -2.21065964e+00   1.16898668e+00  -8.72148030e-01
C     1.092287846930000e+01   4.921986315605559e+00   3.843510000000000e+00  8.30461410e-01  -1.06043789e+00  -1.76631391e+00
C     1.224038645930000e+01   5.554116111363820e+00   3.788766000000000e+00 -1.14882495e+00   1.57971575e+00  -2.27713300e-02
C     3.866833963800000e+00   6.525573289691455e+00   1.939077000000000e-01  5.27260990e-01  -1.55698885e+00  -6.36116450e-01
C     5.102948984899999e+00   7.196655745726647e+00  -1.566492000000004e-01 -8.52534040e-01   1.28741259e+00   1.39103279e+00
C     4.664298981100000e+00   7.024857002956593e+00   3.180651600000000e+00  3.55672480e+00  -1.04078933e+00  -6.66329470e-01
C     5.968715651900000e+00   7.706096355787430e+00   2.964015900000000e+00  6.63171620e-01  -1.71558223e+00   2.23035772e+00
C     6.355887631000000e+00   6.519040434333627e+00  -2.123196000000007e-01 -2.48794774e+00  -1.71753539e+00  -2.33876880e-01
C     7.556991320400000e+00   7.191729163630211e+00  -3.387005999999992e-01 -1.45870116e+00   3.69607734e+00  -3.02721900e-02
C     7.251475917300001e+00   6.998237150125822e+00   3.132279900000000e+00 -1.31053086e+00  -1.44113882e+00   9.11718820e-01
C     8.445101536199999e+00   7.700212209055766e+00   3.393100800000000e+00 -2.65670950e-01   1.61988495e+00  -1.05194276e+00
C     8.748999356999999e+00   6.548817671679483e+00  -3.149933999999988e-01  3.39063669e+00  -1.51143708e+00   1.97879896e+00
C     9.997311395299999e+00   7.274628012122672e+00  -9.489839999999816e-02  3.55551860e-01  -1.83421851e+00  -1.76924900e-02
C     9.689065117300000e+00   7.069495363361631e+00   3.499488600000000e+00  1.38377524e+00  -1.94325985e+00   5.76523580e-01
C     1.098827989860000e+01   7.727136904560673e+00   3.475316400000000e+00 -1.87209130e+00  -1.16499987e+00   1.46336790e-01
C     1.119889033670000e+01   6.466018729609639e+00   2.015649000000000e-01  1.46163257e+00   2.98965010e+00   2.77310100e-01
C     1.248980733640000e+01   7.212470078525712e+00   2.098521000000000e-01 -1.60670787e+00  -1.46249720e-01  -9.43844530e-01
C     1.220597372820000e+01   7.002282677120931e+00   3.537511500000000e+00 -5.11891480e-01  -7.61388400e-02  -5.36322110e-01
C     1.334908153850000e+01   7.781786657022779e+00   3.148574400000000e+00  7.92272230e-01  -1.93596184e+00   1.02281437e+00
