64
Lattice="9.86 0 0 4.93 8.53901048131456 0 0 0 30 " PBC="1 1 1" Properties=species:S:1:pos:R:3:force:R:3 Energy="-510.90378908"
C     5.032889149299999e+00   7.766043795741431e+00  -5.006352000000014e-01 -1.59409989e+00  -2.16748293e+00   8.51118140e-01
C     6.245419346199999e+00   8.432927278763188e+00  -4.144721999999987e-01  1.16493114e+00  -5.27549900e-02  -2.88448020e-01
C     9.847211875799999e+00   8.671443701336417e-01   3.661290300000000e+00 -2.78922011e+00  -3.20031450e-01   1.06164760e+00
C     1.183856577400000e+00   1.604892332617974e+00   3.712637700000000e+00  4.47415740e-01  -7.99894580e-01   4.40696210e-01
C     7.508626097699999e+00   7.647680301972911e+00  -4.119347999999974e-01 -6.62353330e-01   5.33099355e+00  -4.56090000e-04
C     8.729002784000000e+00   8.423006144046894e+00  -4.136477999999997e-01 -8.53733600e-01   1.61605660e-01   5.90983450e-01
C     2.412255852700000e+00   8.727103533348199e-01   3.596178600000000e+00 -4.74820260e-01  -1.00325749e+00   1.11806894e+00
C     3.614045206500000e+00   1.594104744508276e+00   3.758048400000000e+00  1.30042308e+00  -1.90708941e+00  -1.37503889e+00
C     9.954743753999999e+00   7.731763169658528e+00  -4.528146000000000e-01 -1.53179016e+00  -2.02912440e+00   1.89485480e-01
C     1.116558695420000e+01   8.422542134217410e+00  -4.349985000000025e-01 -6.31644700e-01  -2.04854930e-01  -9.41312100e-02
C     4.845868416100000e+00   8.830102785560057e-01   3.672709500000000e+00  6.99628690e-01  -3.54264998e+00   2.79773200e-01
C     6.118289682700000e+00   1.482361374784690e+00   3.672667800000000e+00 -2.15564557e+00   5.18948180e-01   5.66559650e-01
C     1.236713552680000e+01   7.696966018831690e+00  -4.164804000000011e-01  1.95883296e+00  -2.27753440e-01   9.88953550e-01
C     1.361827373690000e+01   8.440377992357512e+00  -4.299006000000034e-01 -1.30881230e-01   8.82800900e-02  -2.31447080e-01
C     7.318392483499999e+00   8.525866381168136e-01   3.808618500000000e+00  2.20318196e+00  -1.57974998e+00  -2.63878450e-01
C     8.572280450400001e+00   1.552635125502261e+00   3.837293400000000e+00 -1.63622870e-01  -9.38902150e-01   1.62057200e-02
C     1.290410097100000e+00   1.315102482326433e+00  -3.194003999999993e-01  1.63049448e+00  -1.26883392e+00   4.67278810e-01
C     2.554640612400000e+00   1.981563284329429e+00  -9.423929999999814e-02 -2.80242673e+00   2.37566060e-01  -1.63223724e+00
C     1.103592460180000e+01   3.025860527584294e+00   3.991332300000000e+00 -1.53970567e+00  -2.13352017e+00  -1.62752591e+00
C     2.413927566400000e+00   3.658077421249451e+00   3.816538800000000e+00  8.90033650e-01   2.85468631e+00   1.22174620e-01
C     3.719486271700000e+00   1.318776818535977e+00  -2.584620000000015e-01  3.47779654e+00  -2.24281258e+00  -1.71612320e-01
C     4.963348245500000e+00   2.045257215131530e+00  -3.233496000000002e-01 -6.45721470e-01  -9.73622280e-01  -1.77459970e-01
C     3.672549960200000e+00   2.988167285963059e+00   3.720825300000000e+00 -1.75259179e+00  -4.79033940e-01   2.57242370e-01
C     4.906053708200000e+00   3.596073787571866e+00   3.624757200000000e+00 -1.03184400e-02   3.99274624e+00   5.68962480e-01
C     6.153923229700000e+00   1.287271456249178e+00  -4.170890999999983e-01  2.29844489e+00   1.24006400e+00  -3.64929920e-01
C     7.417918288199999e+00   1.990529245333429e+00  -4.664321999999999e-01 -4.22166770e-01   2.06300691e+00   7.47449750e-01
C     6.112160509500000e+00   2.827855817821434e+00   3.677834100000000e+00 -5.29931600e-02   6.03619873e+00  -4.28482990e-01
C     7.313013902799999e+00   3.653422294296174e+00   3.760861200000000e+00 -2.66889889e+00   7.81565100e-01   3.33054700e-02
C     8.669956124699999e+00   1.355123116644097e+00  -4.091757000000023e-01  1.86472210e-01  -2.61680199e+00  -7.08916710e-01
C     9.945248475400000e+00   2.016533777069011e+00  -3.909660000000024e-01 -1.42367200e+00  -1.92024587e+00   5.56868200e-01
C     8.467847471599999e+00   2.943060304662878e+00   3.996376500000000e+00  3.79149096e+00   6.26981500e-01  -1.15185114e+00
C     9.723558897599998e+00   3.644421664909626e+00   3.997625700000000e+00  1.43059757e+00   2.21554409e+00   2.61065050e-01
C     2.598814546300000e+00   3.360740281155057e+00  -1.694874000000013e-01 -3.74972157e+00   3.24706321e+00   1.27411945e+00
C     3.761649603700000e+00   4.118868641512424e+00  -1.440993000000006e-01  6.99250030e-01   2.06249202e+00   1.42835530e-01
C     1.228768413980000e+01   5.096402008917419e+00   3.752192100000000e+00 -1.14466273e+00  -5.38278600e-02   5.33484000e-01
C     3.631458163700000e+00   5.888569170580896e+00   3.769946700000000e+00  6.75292900e-02  -2.97237841e+00   4.76278000e-03
C     4.945627360500000e+00   3.460683592296330e+00  -3.223529999999997e-01  3.02229956e+00  -6.30914130e-01   2.79696800e-02
C     6.210001141599999e+00   4.192027553090978e+00  -4.274184000000005e-01 -9.27152880e-01  -3.39322872e+00   2.36063700e-01
C     4.861387218000000e+00   5.184903729136332e+00   3.694392300000000e+00 -1.52098510e-01  -3.56088297e+00  -6.10543830e-01
C     6.062920901999999e+00   5.891475935138393e+00   3.608609700000000e+00  8.45839780e-01  -3.29898718e+00   5.38551240e-01
C     7.413968618700000e+00   3.453671869230783e+00  -4.184160000000006e-01  6.04374570e-01  -7.70090490e-01   3.95603340e-01
C     8.635323219800000e+00   4.163275338563141e+00  -2.662212000000004e-01  2.83632124e+00  -3.12587987e+00  -8.10867320e-01
C     7.268926588999999e+00   5.115703246645992e+00   3.645716700000000e+00  1.27441927e+00  -1.77959328e+00   3.54827330e-01
C     8.551228857399998e+00   5.748822372158465e+00   3.662369400000000e+00 -2.45991067e+00   2.93117220e+00   3.21380330e-01
C     9.927042231900000e+00   3.352726078259157e+00  -2.588571000000002e-01 -1.39243040e-01   5.98254479e+00   3.28107010e-01
C     1.118129521600000e+01   4.125804965115433e+00  -1.660547999999977e-01 -2.78675040e-01  -9.63416730e-01  -4.84520690e-01
C     9.736007443399998e+00   5.114275182533317e+00   3.880442400000000e+00  2.14003400e+00  -3.75091459e+00  -6.51454360e-01
C     1.101027351600000e+01   5.750975056700473e+00   3.735097800000000e+00  3.48232330e-01   7.13567460e-01   7.71089300e-01
C     3.832633912900000e+00   5.565832487643428e+00  -5.458649999999921e-02 -2.26424162e+00   8.78472780e-01  -2.44747190e+00
C     5.042076204300001e+00   6.297764188529414e+00  -4.212845999999999e-01 -1.16278254e+00  -2.14055300e-01   1.19337768e+00
C     1.352116718180000e+01   7.270902014899723e+00   3.862877700000000e+00 -3.25148570e+00   1.42981940e+00  -8.94876550e-01
C     4.831147879800000e+00   7.943984221799226e+00   3.666058200000000e+00  3.06659097e+00   2.51088973e+00   4.39968170e-01
C     6.251673642800000e+00   5.534030223962240e+00  -4.696445999999987e-01  9.61869550e-01   4.87733474e+00   3.99176210e-01
C     7.532776787300000e+00   6.327712035304660e+00  -4.203588000000025e-01 -1.09250083e+00  -5.89189021e+00  -3.47736590e-01
C     6.075961935200000e+00   7.248027030505061e+00   3.654931200000000e+00  5.84246810e-01   2.42854335e+00  -8.31827280e-01
C     7.340268964100000e+00   7.933594380797685e+00   3.595442400000000e+00 -4.52886270e-01   1.44178710e+00  -2.08533410e-01
C     8.784569849299999e+00   5.542178916273199e+00  -3.515442000000029e-01 -5.27516001e+00   8.06537930e-01  -1.44496170e-01
C     9.906817054799999e+00   6.254269799358380e+00  -4.058069999999994e-01  4.33700559e+00   2.70898550e+00   4.23557410e-01
C     8.550978068300001e+00   7.195941201329680e+00   3.608028600000000e+00  1.35572617e+00   1.06453085e+00  -1.28670500e-02
C     9.845573735400000e+00   7.942209473861062e+00   3.657865500000000e+00 -3.68440252e+00  -1.77510620e-01  -6.71618900e-02
C     1.116472898630000e+01   5.590379068729655e+00  -2.464490999999995e-01 -8.94020480e-01  -2.90840686e+00   3.10006500e-01
C     1.236389060080000e+01   6.253696148634335e+00  -1.740801000000012e-01  3.25331519e+00   1.94058043e+00  -5.37428380e-01
C     1.100809268120000e+01   7.162179063963124e+00   3.727549800000000e+00  2.06472368e+00   3.40785834e+00   1.29361650e-01
C     1.225018784160000e+01   8.019556343129532e+00   3.843544800000000e+00  2.42187190e-01  -4.68845096e+00  -4.20166500e-01
