64
Lattice="9.86 0 0 4.93 8.53901048131456 0 0 0 30 " PBC="1 1 1" Properties=species:S:1:pos:R:3:force:R:3 Energy="-511.35310003"
C     4.989270727799999e+00   8.336526973850274e+00  -5.446500000000007e-01 -1.60389702e+00  -9.86499880e-01   5.70631720e-01
C     1.265473072500000e+00   5.262594720527144e-01  -5.301791999999992e-01  1.07405813e+00  -2.16346460e-01   7.91876600e-01
C     1.169319239900000e+00   9.256132804230313e-01   3.815481000000000e+00  2.20216972e+00   7.15107890e-01  -6.50318050e-01
C     2.457602387100000e+00   1.651898475239012e+00   3.939132300000000e+00 -7.77649600e-01  -2.76189411e+00  -6.02527130e-01
C     7.441434486800000e+00   8.302607462520571e+00  -5.919348000000006e-01  1.66092340e-01   3.12893249e+00   9.80914880e-01
C     3.756794786200000e+00   5.003195806264656e-01  -4.270637999999991e-01 -2.86189690e-01  -1.49029050e-01  -8.48935500e-02
C     3.697905640399999e+00   9.273831611252208e-01   3.609042900000000e+00 -2.20952501e+00  -7.75279180e-01   1.07965250e-01
C     4.869128994200000e+00   1.648462121251546e+00   3.581922600000000e+00  1.41247435e+00   1.00854870e+00   6.04674380e-01
C     9.938328678100000e+00   8.313993635264918e+00  -3.715328999999983e-01 -1.78222228e+00  -3.23982530e-01   6.15304610e-01
C     6.214300939700000e+00   4.892693325544024e-01  -3.483836999999994e-01  3.99888000e-01  -8.29807180e-01  -3.26411150e-01
C     6.105298836899999e+00   9.236646782314951e-01   3.455159700000000e+00  1.57207880e-01   5.09872200e-01  -1.72299600e-01
C     7.338979029599999e+00   1.630940754867424e+00   3.491378100000000e+00  9.80588100e-01  -1.17507999e+00   9.97034620e-01
C     1.237127702260000e+01   8.246784193848200e+00  -3.288864000000018e-01  4.79023870e-01   5.14243422e+00  -7.37485380e-01
C     8.662885814500001e+00   4.632914425315176e-01  -5.527194000000009e-01 -8.36762500e-02   1.06437909e+00   4.07846010e-01
C     8.573972820800000e+00   9.067843353641072e-01   3.684034800000000e+00 -2.04943280e-01   4.17803340e-01  -1.48727430e+00
C     9.811381671099999e+00   1.644543483952169e+00   3.799491900000000e+00 -7.50752560e-01  -1.51358358e+00   8.99816080e-01
C     1.252678884400000e+00   1.938914001025601e+00  -1.660848000000001e-01  9.31964570e-01  -4.78734300e-01  -2.04270141e+00
C     2.505893413300000e+00   2.653566758034993e+00  -6.724469999999982e-02 -1.16704670e-01  -5.67709410e-01   8.67310520e-01
C     2.448614750600000e+00   2.998623304295819e+00   4.268284500000000e+00 -7.55085200e-02   2.86447183e+00  -7.19641740e-01
C     3.670847976299999e+00   3.777862404092577e+00   4.089586199999999e+00 -5.54589500e-01   6.66815940e-01   1.19794120e-01
C     3.755526445100000e+00   1.939566979157007e+00  -2.445044999999979e-01 -1.27273283e+00  -7.61346980e-01   2.93492980e-01
C     4.980327214800000e+00   2.637916715797563e+00  -2.315853000000025e-01  3.67452900e-02  -4.24904510e-01  -6.61236880e-01
C     4.859585007200000e+00   3.100205934669043e+00   3.823822200000000e+00  2.05596945e+00  -1.13079409e+00  -5.59335340e-01
C     6.143748892900000e+00   3.796994227853226e+00   3.695347500000000e+00 -1.90066400e-01  -8.90930520e-01  -1.47241253e+00
C     6.196497082800000e+00   1.914546226818826e+00  -4.235135999999997e-01 -1.47363955e+00  -8.25529070e-01   2.37688270e-01
C     7.368151022799999e+00   2.612741321979589e+00  -5.490870000000001e-01  3.09740207e+00   7.58584830e-01  -1.61073030e-01
C     7.395283080600001e+00   3.031994440372497e+00   3.528124500000000e+00 -3.13679508e+00   7.52634790e-01   8.53571020e-01
C     8.553028455300000e+00   3.750634402935420e+00   3.690670500000000e+00  2.76817323e+00   1.79677790e+00  -9.01813820e-01
C     8.610678248399999e+00   1.913361353724621e+00  -6.185642999999992e-01  2.12462752e+00  -6.10776200e-02   1.49119453e+00
C     9.906659294799999e+00   2.673913768377051e+00  -3.179784000000012e-01 -2.20510422e+00  -1.47791483e+00  -5.28120590e-01
C     9.800927162400001e+00   3.024795883757648e+00   3.980323500000000e+00  4.73485940e-01   2.57614140e+00   1.51359090e-01
C     1.105293714440000e+01   3.753236154038571e+00   4.321092600000000e+00 -1.52877767e+00  -8.50521690e-01  -2.37783042e+00
C     2.491603167400000e+00   4.067836697010486e+00   2.508162000000000e-01  2.51246797e+00  -1.77759304e+00  -1.00867448e+00
C     3.739295554000000e+00   4.763411852975776e+00   1.937889000000000e-01  1.68285171e+00  -3.02642040e-01  -2.24924577e+00
C     3.675242134600000e+00   5.246278550082169e+00   4.001480700000000e+00 -1.93418505e+00  -1.99775137e+00   4.69046900e-02
C     4.833918490499999e+00   5.903479136780025e+00   3.644062200000000e+00  3.83513885e+00   1.20997330e+00   1.26078160e-01
C     4.968694386799999e+00   4.047913477758550e+00  -2.177493000000013e-01  1.95388280e-01   1.35372670e+00   1.53645751e+00
C     6.216559027600000e+00   4.779325152906304e+00  -3.975365999999987e-01 -9.06270650e-01   1.29084050e-01  -4.87436860e-01
C     6.153512116999999e+00   5.198460432954588e+00   3.511377600000000e+00 -1.92551110e+00   6.85390630e-01   4.21179030e-01
C     7.359123551900000e+00   5.941186040818028e+00   3.279189000000000e+00 -2.22457550e-01   1.65920170e-01  -4.93542800e-02
C     7.457333786100000e+00   4.030919395271569e+00  -5.116977000000027e-01 -2.01691610e+00   9.89140000e-01   8.02782130e-01
C     8.651260874500000e+00   4.758135683790289e+00  -3.094250999999986e-01  5.83566900e-01   5.64367800e-01  -7.13633480e-01
C     8.574617270399999e+00   5.214845257043823e+00   3.372935400000000e+00  1.56733658e+00  -1.50769201e+00   2.37080836e+00
C     9.876698156500000e+00   5.874372724097477e+00   3.606432600000000e+00 -2.88756670e+00   1.72573980e-01  -5.45633960e-01
C     9.895641829399999e+00   4.079446677219513e+00  -2.026565999999974e-01  1.37612270e+00  -2.32899000e-03   1.18029116e+00
C     1.119771177090000e+01   4.775625626615843e+00   1.357833000000000e-01 -5.22238195e+00   8.67496900e-02  -9.35761050e-01
C     1.100542500890000e+01   5.173392032937929e+00   4.037552700000000e+00  2.01940042e+00  -3.25009040e-01   3.44562440e-01
C     1.225136034350000e+01   5.919856788100454e+00   4.004081999999999e+00  5.59914200e-01  -4.47277400e-01  -1.27263680e-01
C     3.773714644800000e+00   6.161565690521842e+00  -5.922329999999931e-02 -1.59009669e+00   1.12777131e+00   7.99908940e-01
C     4.948051244299999e+00   6.869600885189442e+00  -3.562338000000018e-01  2.06683170e-01   2.40757866e+00  -8.42279070e-01
C     4.916891080699999e+00   7.361419197762229e+00   3.604260900000000e+00 -5.03544480e-01  -1.65491410e+00  -7.13035120e-01
C     6.151232287799999e+00   8.085919824777996e+00   3.479574900000000e+00 -8.60829350e-01  -3.59304700e-02   4.34985200e-01
C     6.154023210099999e+00   6.245780400529269e+00  -5.173085999999998e-01  2.25008300e+00  -3.44619950e+00   9.14835490e-01
C     7.413384315100000e+00   6.919912905717812e+00  -5.578895999999993e-01 -1.80752940e-01  -8.50480130e-01   1.48964660e-01
C     7.372862771699999e+00   7.410421334082967e+00   3.229336500000000e+00 -6.09155860e-01  -2.67227751e+00   1.13723205e+00
C     8.616974745800000e+00   8.001917309180994e+00   3.358776000000000e+00  5.52007330e-01   2.78620465e+00   3.04189340e-01
C     8.615500872999998e+00   6.197905669762206e+00  -3.281673000000005e-01  5.87381040e-01  -6.94504310e-01  -3.07002310e-01
C     9.863588546999999e+00   6.866448880250960e+00  -2.130225000000010e-01  8.29202480e-01   8.43031450e-01  -9.71411900e-02
C     9.861560443599998e+00   7.307052086547013e+00   3.459604200000000e+00 -7.53379190e-01  -6.83321600e-01  -4.86461530e-01
C     1.104770542840000e+01   8.038712076119525e+00   3.458760000000000e+00  1.35207463e+00  -1.72910120e-01   1.49065357e+00
C     1.108457734210000e+01   6.163781649131506e+00   3.635580000000000e-02  2.62248285e+00   2.27453684e+00  -1.36427000e-02
C     1.241671949480000e+01   6.956535099254541e+00  -2.311529999999706e-02 -2.35880554e+00  -5.63302302e+00   2.52480270e-01
C     1.227762339020000e+01   7.299639200769115e+00   3.750975300000000e+00 -2.02187130e-01   1.34921914e+00  -1.31438038e+00
C     1.353285488070000e+01   8.015368897780245e+00   3.619899900000000e+00 -7.05719280e-01   8.78522660e-01   1.09770695e+00
