64
Lattice="9.86 0 0 4.93 8.53901048131456 0 0 0 30 " PBC="1 1 1" Properties=species:S:1:pos:R:3:force:R:3 Energy="-513.75621387"
C     5.001878364700000e+00   8.017750257022907e+00   3.680430000000000e-02  1.02274570e+00   3.13258485e+00  -4.03798870e-01
C     1.356822570800000e+00   2.541165115993504e-01   2.085600000000000e-03 -1.65133353e+00  -4.14816692e+00   6.05217920e-01
C     9.785231274899999e+00   5.757493566520696e-01   3.569316900000000e+00 -7.65017860e-01  -3.95996674e+00   5.44007500e-02
C     1.148010941800000e+00   1.261682005813029e+00   3.558031200000000e+00  1.73132050e-01  -8.41127820e-01   2.98033500e-02
C     7.474514786799999e+00   8.013265312548496e+00   3.736560000000000e-02  1.53470268e+00   2.56109459e+00  -9.92754110e-01
C     3.815777306200000e+00   2.014613865952688e-01  -1.380210000000019e-01 -1.79544852e+00  -8.17551480e-01   2.03006620e-01
C     2.394161914600000e+00   5.665052800767361e-01   3.555418200000000e+00 -5.97222090e-01  -3.03263915e+00  -7.77357970e-01
C     3.645748557500000e+00   1.179971958359594e+00   3.356199900000000e+00 -1.15972294e+00   1.67289463e+00   1.41041123e+00
C     9.936733330099999e+00   7.988575532256519e+00  -1.718325000000007e-01  1.86048720e+00   3.44405588e+00   1.36662971e+00
C     6.253680941600000e+00   1.753690738319520e-01   1.422900000000000e-03 -3.99380790e-01   1.32591658e+00  -8.16195470e-01
C     4.876717693900000e+00   5.110783068807416e-01   3.441450000000000e+00 -1.23638019e+00  -2.54345536e+00  -3.37664680e-01
C     6.045533925900000e+00   1.254357157233180e+00   3.465745800000000e+00  9.89736800e-01  -6.15174440e-01   1.44024760e-01
C     1.242625534730000e+01   8.007307901106914e+00  -5.554499999998797e-03 -1.29498504e+00  -1.35344980e-01  -9.45274180e-01
C     8.686197812500000e+00   1.771242674361160e-01  -7.069079999999772e-02  1.55595629e+00   1.45596726e+00   1.23057936e+00
C     7.262342820500000e+00   4.991291571754488e-01   3.504435600000000e+00  1.38644441e+00   2.74624680e-01  -1.88187470e-01
C     8.533260535700000e+00   1.202380712782049e+00   3.497558700000000e+00 -2.21987510e-01   1.26404291e+00   7.43245780e-01
C     1.365848266900000e+00   1.613236397488716e+00  -5.360519999999980e-02 -1.66530765e+00   1.71063506e+00  -3.95765730e-01
C     2.571883238100000e+00   2.309270610657410e+00  -2.134718999999983e-01  1.77405290e-01   2.48291507e+00   3.36837850e-01
C     1.095523706660000e+01   2.633915677047054e+00   3.486146100000000e+00  1.51644369e+00   2.68115182e+00  -4.18453470e-01
C     2.365285967900000e+00   3.331346957720382e+00   3.324834900000000e+00 -5.98174690e-01   2.65447600e-02   1.19809929e+00
C     3.800791289399999e+00   1.626452650959136e+00  -2.398011000000011e-01  4.69003090e-01  -4.50689910e-01   8.79829270e-01
C     5.018250204499999e+00   2.368110028611527e+00  -1.228578000000020e-01  2.11132260e-01  -1.28818891e+00   2.27083970e-01
C     3.578425611400000e+00   2.616487556657375e+00   3.408591900000000e+00  1.17940806e+00   3.44012570e-01  -4.16879590e-01
C     4.787679034500000e+00   3.376265568449374e+00   3.528945000000000e+00  8.02582140e-01   1.38878190e-01  -7.11978820e-01
C     6.250400519600000e+00   1.655269420406202e+00   3.371340000000000e-02 -1.22219570e-01  -1.76469098e+00  -6.89323720e-01
C     7.489844523199999e+00   2.354361965568413e+00   3.083700000000000e-02 -5.61518290e-01  -2.38765870e-01  -3.05358800e-02
C     6.021360361099999e+00   2.674643426822567e+00   3.492276300000000e+00  1.01376239e+00  -7.38893120e-01  -1.30110750e-01
C     7.309639860100001e+00   3.316011065678511e+00   3.450147900000000e+00 -8.07226040e-01   5.17289590e-01   8.40183550e-01
C     8.707005222599999e+00   1.635222214722096e+00  -3.802650000000085e-02  1.64473420e-01  -1.64076867e+00   6.18194180e-01
C     9.946521795799999e+00   2.291742156894590e+00  -9.912599999999827e-03  4.96519100e-01   2.12998700e+00  -1.42005892e+00
C     8.566493172700000e+00   2.650463852406770e+00   3.551287500000000e+00 -2.24627846e+00  -1.35636499e+00  -6.97197260e-01
C     9.741863395999999e+00   3.380368477594909e+00   3.553392600000000e+00  1.28016315e+00   1.21847040e+00  -8.72426640e-01
C     2.558741731500000e+00   3.788632487230791e+00  -2.203202999999974e-01 -1.14582509e+00  -1.60930070e+00  -6.62870310e-01
C     3.807329258199999e+00   4.467468194001612e+00  -1.836522000000009e-01 -1.56271803e+00   2.00766258e+00  -2.70905710e-01
C     1.228391086570000e+01   4.749441092539342e+00   3.373069200000000e+00 -1.41248859e+00   5.58500270e-01  -1.42817630e-01
C     3.624063262300000e+00   5.515188299607386e+00   3.402261900000000e+00 -6.05923330e-01  -1.54425854e+00   5.76135210e-01
C     4.993288924300000e+00   3.770496824432738e+00  -9.283409999999748e-02  1.57576344e+00  -2.22993320e-01  -4.31937970e-01
C     6.238834098700000e+00   4.467898303959490e+00  -8.670359999999988e-02  5.54420290e-01   1.01357152e+00   8.58398000e-01
C     4.834814813800000e+00   4.820512045275327e+00   3.534932100000000e+00 -7.71878580e-01  -1.49786121e+00  -8.69588190e-01
C     6.041774800899999e+00   5.511721461352506e+00   3.487607100000000e+00  2.40133580e+00  -3.47380735e+00   7.18072840e-01
C     7.466140097200000e+00   3.768789107726843e+00   2.710800000000000e-02  3.96018000e-03  -1.10640310e-01  -7.81838110e-01
C     8.701513005399999e+00   4.456251691395504e+00  -7.374150000000057e-02 -2.14677580e-01   1.76531447e+00   2.48942110e-01
C     7.302512953499999e+00   4.701163747428148e+00   3.484451100000000e+00 -8.22714470e-01   3.63970004e+00  -1.48822570e-01
C     8.499038989999999e+00   5.522608955884821e+00   3.485848200000000e+00  6.83345080e-01  -4.08197933e+00   1.13255010e-01
C     9.892303972899999e+00   3.755252982923842e+00  -2.036700000000025e-01  1.68828305e+00  -1.89788776e+00   9.16472060e-01
C     1.111247389500000e+01   4.468112206172015e+00  -3.105866999999982e-01  2.91588727e+00   1.90367020e-01   9.92395130e-01
C     9.772951384399999e+00   4.858410564708501e+00   3.447182700000000e+00 -4.99452340e-01  -3.24959573e+00   4.56873490e-01
C     1.103972203290000e+01   5.472047852420750e+00   3.418613100000000e+00 -5.35409070e-01  -9.09944210e-01  -8.48615200e-02
C     3.845251163300000e+00   5.938341354866720e+00  -1.902591000000022e-01 -1.54820611e+00  -2.46727904e+00   6.56146540e-01
C     5.005327984300000e+00   6.648381765365340e+00   4.064700000000000e-02  3.21105136e+00  -2.04522274e+00  -1.35881900e+00
C     1.346162757180000e+01   6.900552321866403e+00   3.459926700000000e+00 -6.86342600e-02   2.35802663e+00   4.78323440e-01
C     4.834835519800000e+00   7.625364708154794e+00   3.574665900000000e+00  2.11351370e-01   7.01871520e-01  -3.03725780e-01
C     6.306963247700000e+00   5.902559314571119e+00  -6.011550000000199e-02 -2.93785679e+00  -1.22671650e-01   1.04615547e+00
C     7.490198299999999e+00   6.623260252703495e+00   3.434190000000000e-02  2.06981417e+00  -1.54813324e+00  -2.02146670e-01
C     6.072028386800000e+00   6.871272908831531e+00   3.588876000000000e+00 -6.09554280e-01   3.81965950e+00  -2.79346830e-01
C     7.281169060800000e+00   7.639217032515869e+00   3.585713100000000e+00  7.83760450e-01   2.53888800e-02   1.28364420e-01
C     8.780689298399999e+00   5.899169071240245e+00  -1.045140000000089e-02 -1.71147248e+00   1.06117600e-02  -4.91016780e-01
C     1.000708383850000e+01   6.633075589079940e+00  -9.125399999999928e-02 -9.20024370e-01  -3.25358121e+00  -5.58117210e-01
C     8.501259166199999e+00   6.862446475258774e+00   3.567715800000000e+00  6.13003160e-01   4.86606610e+00  -8.81254530e-01
C     9.794794784699999e+00   7.562837035404050e+00   3.450203100000000e+00 -2.11596772e+00   1.72217633e+00   7.16646830e-01
C     1.123245214980000e+01   5.893465012239605e+00  -2.275223999999980e-01 -1.38947473e+00  -3.06043620e-01   1.00432460e-01
C     1.246418306980000e+01   6.586137587762532e+00  -1.910184000000008e-01 -6.21284240e-01   6.54978270e-01   4.61306250e-01
C     1.098724376050000e+01   6.856627395786969e+00   3.454350300000000e+00  1.60155752e+00   1.72977103e+00  -1.51862700e-02
C     1.220608100500000e+01   7.607292404814503e+00   3.502381500000000e+00  3.99812340e-01   4.34862200e-01  -6.20623050e-01
