52
Lattice="8.88768389401873 1.33226762955019e-15 0 4.44384194700937 7.69696003302603 0 0 0 30 " PBC="1 1 1" Properties=species:S:1:pos:R:3:force:R:3 Energy="-408.41794609"
C     1.296231229801020e+01   7.326863945123897e+00  -4.207590000000003e-01 -3.47659622e+00  -4.17857500e+00   3.92141590e-01
C     9.262580310212419e+00   6.937933014206384e+00  -4.724067000000005e-01 -1.28168563e+00   9.94790000e-01   1.91962202e+00
C     1.062051748873786e+01   6.605441505131251e+00  -1.681781999999998e-01 -1.87198655e+00  -3.53453685e+00  -1.05217970e+00
C     1.093445403512535e+01   5.112825156747165e+00  -1.835339999999981e-01 -5.65334374e+00   6.13739154e+00   5.90248010e-01
C     6.843034842554494e+00   6.403487975137708e+00  -6.547440000000009e-01 -1.48703426e+00   2.60823669e+00   1.14482488e+00
C     8.106062266720734e+00   5.958485614036848e+00  -3.676889999999986e-01  5.46673312e+00   5.83097110e-01  -1.94178666e+00
C     8.586479574942459e+00   4.601657572079617e+00  -4.082693999999982e-01 -6.94581154e+00  -4.84001120e-01   1.14055462e+00
C     9.839220660447493e+00   4.222179123835745e+00  -2.028468000000032e-01  4.58176228e+00  -2.99556309e+00  -1.40916679e+00
C     1.030633323916858e+01   2.815223013321533e+00  -4.806981000000015e-01 -3.51866346e+00   7.71369080e-01   3.90277600e-01
C     4.368470789997327e+00   5.998242721679807e+00  -3.973247999999998e-01  1.35722142e+00  -5.35766121e+00  -4.03132250e-01
C     5.784000115609595e+00   5.539595497716164e+00  -5.012856000000028e-01 -3.15188200e+00  -3.57953585e+00   1.28096894e+00
C     6.031252591982020e+00   4.077003066169101e+00  -2.435772000000007e-01  1.47121620e-01  -1.49780280e-01  -2.27288837e+00
C     7.405364155208555e+00   3.526872700133690e+00  -3.918612000000010e-01 -8.26756750e-01   1.06652605e+01   5.02276200e-01
C     7.661523113079120e+00   2.305522007418101e+00  -4.403043000000011e-01  6.63867799e+00  -9.92842949e+00   1.22878883e+00
C     9.290031651683055e+00   1.824093936914466e+00  -4.903844999999976e-01 -3.86642155e+00   3.12743052e+00  -8.94336500e-01
C     3.303366885752785e+00   4.883032876869117e+00  -3.409946999999995e-01  7.05013888e+00  -2.66477160e-01   2.67891080e-01
C     3.657108835371295e+00   3.509894822669116e+00  -3.882498000000005e-01  2.28499946e+00  -7.93593720e-01  -1.24342812e+00
C     4.966683059786099e+00   3.046048994931610e+00  -3.683088000000012e-01  4.77146993e+00   2.27340886e+00   1.44241087e+00
C     5.479106028653947e+00   1.685753241572064e+00  -3.044319000000009e-01 -4.73584730e+00  -1.43527913e+00  -8.41687050e-01
C     6.752603633235817e+00   1.195488522166787e+00  -1.982976000000001e-01  1.71305553e+00   4.59911374e+00  -1.31879861e+00
C     1.159039074878132e+01   7.585002589400430e+00  -2.396582999999985e-01  1.61159950e-01   4.38192080e-01   2.81883470e-01
C     2.765585219275066e+00   2.506350318824858e+00  -6.683231999999997e-01 -2.27158529e+00  -2.24768903e+00   9.42186560e-01
C     3.047224500141455e+00   1.068693112930184e+00  -7.756895999999998e-01  3.48831650e+00   1.64483998e+00   1.28544256e+00
C     4.526166561562448e+00   6.438552477159176e-01  -5.497269000000031e-01 -3.67296513e+00   3.18787550e-01  -2.81150990e-01
C     6.000083396137307e-01   4.745646912448836e-01  -6.780264000000003e-01  5.53545936e+00   4.06942999e+00   6.00489660e-01
C     2.028593895142451e+00   1.543760030817025e-01  -6.862080000000006e-01 -4.01432380e-01  -3.25937536e+00  -1.19286114e+00
C     3.775990717798251e-01   4.313794345741629e-01   3.611843700000000e+00 -7.30707460e-01   7.09983760e-01   3.12167463e+00
C     7.304531695467292e+00   7.607376189785233e+00   3.806496300000000e+00 -3.98415997e+00  -1.52299376e+00   2.09000867e+00
C     4.185737205941523e+00   3.687202532707398e-01   3.983006700000000e+00  1.96712770e-01  -1.67753058e+00  -6.45180180e-01
C     9.628798302640760e+00   7.085196949250766e+00   3.997975500000000e+00 -2.87289720e-01  -3.00419374e+00   3.22440900e-01
C     1.096351840712908e+01   7.363273029093007e+00   3.839212200000000e+00  7.34768200e-02   4.73400814e+00  -4.81035820e-01
C     1.191108717885250e+01   6.390707173007893e+00   3.738757500000000e+00  4.20703950e+00  -1.99266900e+00   6.82836140e-01
C     4.428754661599823e+00   6.753761155213348e+00   3.734991300000000e+00 -1.37124100e-01   8.78164190e-01  -1.49101626e+00
C     5.472171193733951e+00   5.730156988078105e+00   3.712127400000000e+00 -1.56253886e+00   4.38192931e+00  -1.04486810e-01
C     6.780903088511234e+00   6.194801221479521e+00   3.836554500000000e+00  6.09872178e+00   5.49533620e-01   4.67947130e-01
C     7.945307883703492e+00   5.281203469515444e+00   4.017715500000000e+00 -2.41309468e+00  -1.69446782e+00  -1.37504609e+00
C     9.315052661782310e+00   5.620773949699768e+00   4.105449900000000e+00 -1.10602265e+00   3.80019636e+00  -1.15160467e+00
C     1.030870634086138e+01   4.689163540964683e+00   3.914896800000000e+00  3.18396950e-01  -4.68319767e+00   2.36349564e+00
C     1.170662680991004e+01   4.936652902252510e+00   3.864480300000000e+00 -3.57839906e+00   4.22095061e+00  -1.63918227e+00
C     3.771877141988772e+00   4.009254116106640e+00   3.567589200000000e+00  6.65421400e-02  -2.77503209e+00   2.18650929e+00
C     5.098016143337865e+00   4.433552963210005e+00   3.562282200000000e+00  3.03758672e+00  -1.94571861e+00   7.54571020e-01
C     6.248713285935156e+00   3.554219922150679e+00   3.687519300000000e+00 -1.55496122e+00  -1.74245442e+00  -8.29447710e-01
C     7.614421411300977e+00   3.885450977051300e+00   3.797850000000000e+00  8.49337200e-02   1.48543754e+00   6.76435470e-01
C     8.640152207958963e+00   2.880051120991810e+00   3.801777300000000e+00 -4.15246007e+00  -1.90627790e-01   7.02546230e-01
C     9.904092931028842e+00   3.215680295823172e+00   4.097580000000001e+00  3.76796178e+00   2.83649023e+00  -2.90066388e+00
C     2.011118754677297e+00   2.237237887724754e+00   3.864553500000000e+00  2.42381134e+00  -1.75963211e+00   2.66828242e+00
C     3.428218401243648e+00   2.588276453505777e+00   3.874917300000000e+00 -4.58596270e-01   3.01098649e+00  -1.93181914e+00
C     4.522643306617707e+00   1.725944226851914e+00   3.888160800000000e+00  2.96091800e-01   2.04797490e-01  -4.93509490e-01
C     5.919196050123558e+00   2.175130424516281e+00   3.708891300000000e+00 -2.53015713e+00  -4.06245160e-01   7.26829450e-01
C     6.893594473153437e+00   1.205550450135605e+00   3.710297400000000e+00 -7.87784140e-01  -4.44302977e+00   2.61868290e-01
C     8.211951907251988e+00   1.538916102961345e+00   3.705596100000000e+00  3.75329219e+00  -2.30639362e+00  -7.82841340e-01
C     1.752248518216422e+00   7.756957063737847e-01   3.991254900000000e+00 -9.89211900e-01   3.26923477e+00  -3.79120068e+00
