52
Lattice="8.88768389401873 1.33226762955019e-15 0 4.44384194700937 7.69696003302603 0 0 0 30 " PBC="1 1 1" Properties=species:S:1:pos:R:3:force:R:3 Energy="-419.20823704"
C     1.255842763445626e+01   6.835558288844163e+00  -8.279220000000009e-02  1.90720283e+00   6.02117200e-02   6.10622670e-01
C     8.846017499040180e+00   6.655266159523848e+00  -3.453300000000326e-03 -8.70144760e-01  -6.05876900e-02  -2.62509800e-01
C     1.018955347449083e+01   6.253180662097463e+00  -6.210959999999943e-02 -1.85511990e-01   8.95820620e-01   1.21780360e-01
C     1.049741133402062e+01   4.915188004968846e+00  -7.872659999999954e-02  2.02005047e+00  -2.57398947e+00  -1.99658800e-01
C     6.441876698320385e+00   6.057625999824861e+00   2.919240000000000e-02 -5.82908300e-01  -1.23231660e-01  -8.03772440e-01
C     7.839781302439534e+00   5.668166595631687e+00  -3.322560000000152e-02 -1.94401114e+00   1.50478970e-01   6.26908970e-01
C     8.133824234980839e+00   4.289055700448406e+00  -2.731950000000083e-02  1.32358030e+00  -3.77184030e-01  -5.19607030e-01
C     9.527099022362851e+00   3.889219639590788e+00  -5.035200000000017e-02 -1.50696543e+00   7.18199600e-01   2.35146240e-01
C     9.842931578437462e+00   2.524165933419097e+00  -1.320570000000032e-02  8.74826550e-01  -8.00664750e-01  -1.25132060e-01
C     4.018233519513077e+00   5.440853891427304e+00  -1.024338000000000e-01  8.45475580e-01   1.75645624e+00  -6.66162700e-02
C     5.384475927537798e+00   5.066818271499047e+00  -8.399969999999968e-02  1.28382599e+00  -3.97661600e-02  -9.19771000e-02
C     5.756917430743503e+00   3.690437565008007e+00  -1.946300999999977e-01 -1.33227320e-01  -7.25117300e-01   9.42833990e-01
C     7.128296697861474e+00   3.311671624354112e+00  -1.125797999999989e-01 -2.89996120e-01  -1.79255744e+00   5.84843300e-02
C     7.489872385324338e+00   1.859178143153612e+00  -8.322210000000041e-02 -2.12459806e+00   3.05297638e+00  -2.30163380e-01
C     8.822336261984336e+00   1.527646368024620e+00  -1.439219999999963e-02  1.08011838e+00  -3.88237420e-01   1.42093060e-01
C     3.007395502410155e+00   4.490497844417557e+00  -1.409510999999988e-01 -1.14219735e+00  -2.06013960e-01   2.12958030e-01
C     3.368160988670136e+00   3.131183607401034e+00  -1.359408000000002e-01 -4.15334930e-01  -2.43873881e+00   4.73854820e-01
C     4.742499676708860e+00   2.658607271840701e+00  -1.374551999999980e-01 -5.03826200e-01   1.78025654e+00  -4.00215720e-01
C     5.075216965751654e+00   1.279386079220190e+00  -8.825370000000277e-02  2.23669330e-01   9.57898160e-01  -8.44150100e-02
C     6.452328522347204e+00   8.991521743493738e-01  -1.143575999999982e-01 -3.57926510e-01  -3.42397390e-01   4.28017610e-01
C     1.122411240883061e+01   7.208745318929114e+00  -7.397520000000313e-02 -4.64188950e-01   1.16051749e+00  -2.78612730e-01
C     2.324930518865542e+00   2.103237200264867e+00  -2.756519999999796e-02  7.22863120e-01   1.54508475e+00  -3.90116320e-01
C     2.694278219320449e+00   7.442680949360911e-01  -3.828299999998563e-03 -1.87666703e+00  -1.00695778e+00   2.07592720e-01
C     4.031508605231112e+00   3.235107730817294e-01  -1.083510000000132e-02  8.81301240e-01   6.02754500e-02  -2.04199370e-01
C     2.718716284313740e-01   1.585905505157293e-01   2.318730000000000e-02 -4.92774580e-01  -1.57674790e+00  -6.06483590e-01
C     6.062717972510152e+00   7.438154598076069e+00   2.715990000000000e-02  1.72242013e+00   3.37755310e-01   1.90916690e-01
C     7.534542022327679e-01   8.720160029764068e-01   3.476606400000000e+00  2.36930680e-01  -7.93837740e-01  -7.14741410e-01
C     3.150185473433251e+00   2.758925292513305e-01   3.377340000000000e+00 -5.04705220e-01  -7.17490350e-01  -2.96683830e-01
C     4.506917482502943e+00   6.819017059922092e-01   3.368728200000000e+00  2.98593880e-01  -1.00130240e+00   2.27772610e-01
C     9.976651362856266e+00   7.352544159537590e+00   3.396168600000000e+00 -4.14259050e-01   9.71045800e-01   7.31699900e-02
C     6.896416978613405e+00   4.885506833761960e-02   3.464092200000000e+00  1.19414490e-01  -2.02758250e-01   7.91312000e-03
C     1.238693884054714e+01   6.766657488713213e+00   3.498330000000000e+00 -5.40850720e-01  -2.06633400e-02  -1.57604060e-01
C     4.859092938508319e+00   7.176440331017600e+00   3.500842500000000e+00 -5.08638600e-01   5.55164580e-01   1.48516920e-01
C     5.855866638990634e+00   6.204285261689287e+00   3.530292900000000e+00  9.43942700e-01  -1.77755154e+00  -4.41203110e-01
C     7.240731678180030e+00   6.568296360874472e+00   3.440600100000000e+00 -2.70455150e-01   6.46941200e-01   5.80361100e-02
C     8.249001153369727e+00   5.565145171687747e+00   3.434078100000000e+00  7.84546010e-01   1.11854190e+00   3.18047620e-01
C     9.635788287554714e+00   5.989374592211641e+00   3.404645400000000e+00 -3.19322350e-01  -1.28536294e+00   4.80848770e-01
C     1.068099617682963e+01   4.987836300999203e+00   3.499074300000000e+00 -6.91231370e-01   9.35110910e-01  -1.13751360e+00
C     3.154259724358886e+00   5.379285600268934e+00   3.469436100000000e+00  1.64069400e-02   3.47294070e-01   3.90010730e-01
C     4.160911818829347e+00   4.368534894566189e+00   3.476515800000000e+00  3.59420000e-02   2.10215759e+00   2.10287060e-01
C     5.508419745177312e+00   4.779947029369725e+00   3.531782100000000e+00  6.78162330e-01   1.44519797e+00  -2.50807100e-02
C     6.542475679803323e+00   3.820486864097293e+00   3.552243600000000e+00 -8.33090800e-02  -4.45385290e-01  -7.48194200e-02
C     7.903854525501844e+00   4.201530950980866e+00   3.541821000000000e+00  9.38272630e-01  -2.46497790e-01  -5.49485620e-01
C     8.951898830230725e+00   3.226646770534716e+00   3.477984900000000e+00 -3.53526200e-02  -6.91731840e-01  -9.45885600e-02
C     1.034439234627602e+01   3.620579493958125e+00   3.398853900000000e+00 -1.29959158e+00  -3.30764260e-01   1.20371204e+00
C     2.478704026040068e+00   2.637515754088094e+00   3.448057200000000e+00 -1.55509544e+00  -4.23763970e-01  -1.14113154e+00
C     3.805726240958749e+00   3.035675955838380e+00   3.451617600000000e+00  8.61881930e-01  -1.10631879e+00   1.40077600e-02
C     4.828926891786300e+00   2.060094892631113e+00   3.432773400000000e+00  5.39615940e-01  -5.25839550e-01   3.27908900e-02
C     6.189488426078489e+00   2.447592264743040e+00   3.505346700000000e+00  7.21115720e-01  -9.19208470e-01  -1.00875830e-01
C     7.215483586882246e+00   1.424434059471935e+00   3.498658200000000e+00  4.77673990e-01   9.93740240e-01   2.21806300e-02
C     8.603398968077821e+00   1.816601716021264e+00   3.493269000000000e+00 -4.39304470e-01   1.54565690e+00   4.39831100e-02
C     2.119930001332829e+00   1.262116410000879e+00   3.326904900000000e+00  2.09779800e-02  -1.58982990e-01   1.52328566e+00
