52
Lattice="8.88768389401873 1.33226762955019e-15 0 4.44384194700937 7.69696003302603 0 0 0 30 " PBC="1 1 1" Properties=species:S:1:pos:R:3:force:R:3 Energy="-414.19593455"
C     1.286078179683019e+01   7.180161118465702e+00  -3.948473999999997e-01 -1.23142833e+00  -3.51478850e+00  -2.00579900e-01
C     9.100900097614836e+00   6.954118797514270e+00  -4.401426000000015e-01  5.68986320e-01  -2.81801879e+00   1.37003946e+00
C     1.043284608886470e+01   6.515039862913297e+00  -5.045165999999988e-01  1.16133461e+00  -5.06253930e-01  -7.87525270e-01
C     1.078364510413657e+01   5.113322303395503e+00  -6.005180999999986e-01  2.07975175e+00   2.22290476e+00   9.42019880e-01
C     6.817345614361164e+00   6.330892865101158e+00  -3.872979000000001e-01 -5.07423726e+00   1.41115275e+00   1.80134864e+00
C     8.109903301500314e+00   5.949894344220962e+00  -2.205468000000010e-01  1.78140847e+00  -5.98966500e-01  -2.50093356e+00
C     8.502335605475801e+00   4.614344779175466e+00  -4.461735000000004e-01 -3.72180480e+00  -3.61687118e+00   1.24235876e+00
C     9.790291783124108e+00   4.181564036058242e+00  -5.602413000000013e-01  1.76191830e-01  -1.85159260e+00   2.36994070e-01
C     1.014593089773420e+01   2.790602439395171e+00  -4.417778999999982e-01 -6.06577150e-01  -9.48998950e-01   1.41286263e+00
C     4.301075349595376e+00   5.769147401532474e+00  -3.785246999999998e-01  1.16189169e+00  -9.48387120e-01  -1.22527228e+00
C     5.737797268599394e+00   5.361119850962929e+00  -4.584416999999981e-01 -5.29082850e-01  -1.38767335e+00   1.27725211e+00
C     6.058345896306069e+00   3.887555325923502e+00  -3.792168000000018e-01 -5.08365480e-01   1.68474951e+00  -1.35082098e+00
C     7.460357543544936e+00   3.429947422472709e+00  -3.711620999999994e-01 -1.92495976e+00   8.01735871e+00  -3.90673080e-01
C     7.723824799403410e+00   2.152532457746602e+00  -3.966849000000003e-01  4.64448266e+00  -4.50117140e+00   3.75150870e-01
C     9.230375250995550e+00   1.734142874736669e+00  -2.444720999999994e-01 -5.07278736e+00   3.33262655e+00  -2.07356124e+00
C     3.261403819468194e+00   4.708750841818628e+00  -4.809836999999995e-01  1.03347253e+00   2.62065674e+00   6.83333000e-01
C     3.600469758884874e+00   3.356594623690806e+00  -3.043905000000002e-01  1.30865308e+00   2.85651520e-01  -1.64285897e+00
C     4.962527267614597e+00   2.951564346326543e+00  -5.078631000000016e-01  1.89976772e+00  -8.75146970e-01   1.65220936e+00
C     5.352642996724623e+00   1.524368001839042e+00  -5.462085000000023e-01  1.21334140e-01   3.04319574e+00   6.54672990e-01
C     6.735431694727957e+00   1.156120957670946e+00  -5.147489999999983e-01 -2.11084622e+00   1.16153910e+00   6.77842200e-02
C     1.143886120432735e+01   7.500231889201223e+00  -4.938240000000000e-01  3.07737826e+00  -5.70927650e-01   3.16404410e-01
C     2.581362596249778e+00   2.402392174845266e+00  -2.480982000000012e-01  1.74286516e+00  -1.05009601e+00  -3.11794200e-01
C     2.976608163210289e+00   1.012810027358771e+00  -1.484790000000018e-01 -2.54448510e-01   6.24254620e-01  -7.48376860e-01
C     4.362278026092916e+00   5.741397243657914e-01  -3.571859999999987e-01 -2.44211766e+00   2.26878430e+00   8.32699400e-02
C     5.874534639819239e-01   3.921541868692769e-01  -3.247683000000023e-01  6.09793720e-01   3.73042730e-01   1.14513644e+00
C     1.941732116317653e+00   7.008189864755419e-02  -1.767669000000005e-01  2.10768052e+00  -3.87976654e+00  -1.46989365e+00
C     4.982331606722066e-01   5.987586819305474e-01   3.825373500000000e+00 -1.05080911e+00   7.07708860e-01   7.69932810e-01
C     2.797900391925800e+00   6.008524089979080e-02   3.775553400000000e+00  2.54790588e+00  -2.31673902e+00  -3.66758170e-01
C     4.172168245682244e+00   4.469876380013981e-01   3.734122800000000e+00  1.03929447e+00  -3.70826310e+00  -4.08296200e-02
C     9.688861092603489e+00   7.066396816499090e+00   3.768900600000000e+00 -1.19571167e+00   1.59665875e+00  -9.27490980e-01
C     1.104768717331503e+01   7.475651878254220e+00   3.799513500000000e+00  2.89086850e-01   1.51013839e+00   8.16230000e-01
C     1.206494587419770e+01   6.494865822796266e+00   3.872874000000000e+00  1.64338003e+00   1.07375802e+00  -8.46993600e-02
C     4.575426864686494e+00   6.947334619974227e+00   3.814000200000000e+00 -6.00755400e-01  -2.30748555e+00   1.29564331e+00
C     5.587347311501649e+00   5.883042013032395e+00   3.926739300000000e+00 -1.06496392e+00   3.51318350e+00  -1.34729577e+00
C     6.893718904078128e+00   6.362869731606592e+00   3.740635800000000e+00  2.47009934e+00  -2.26366284e+00   7.22861020e-01
C     7.955031765341420e+00   5.295271280331875e+00   3.667552200000000e+00  3.53853620e-01   1.90276442e+00  -6.59825200e-02
C     9.374549839588751e+00   5.673512596190124e+00   3.616023000000000e+00 -1.22587379e+00   4.69390270e-01   5.16810570e-01
C     1.040736958624188e+01   4.682300469584334e+00   3.615282600000000e+00  8.17225600e-02   1.33204660e+00   1.58659354e+00
C     1.178132352703062e+01   5.111218724219304e+00   3.936792600000000e+00 -2.46564267e+00  -1.46977060e-01  -1.93460885e+00
C     3.883733754238211e+00   4.125558645791953e+00   3.944684400000000e+00 -6.78257370e-01  -1.02452620e-01  -7.85032260e-01
C     5.209506938523553e+00   4.557804604126294e+00   3.933451800000000e+00  1.93295689e+00  -2.72660312e+00   8.46965170e-01
C     6.233208588051610e+00   3.520073205643187e+00   3.973864800000000e+00  6.35967220e-01   1.34125128e+00  -2.18940748e+00
C     7.624900257267194e+00   3.930696786891652e+00   3.748545000000000e+00 -6.97103800e-02  -1.44425035e+00   1.32047735e+00
C     8.694739695842038e+00   2.890809085056141e+00   3.814207200000000e+00 -1.11678429e+00   3.97642343e+00  -5.50609800e-01
C     1.005449840566826e+01   3.308807662496550e+00   3.666446400000000e+00 -2.04185345e+00   1.74220025e+00  -2.75285680e-01
C     2.154606678350255e+00   2.385238421844007e+00   3.622151400000000e+00  2.14959221e+00  -7.47472200e-01   1.41928693e+00
C     3.510548794494993e+00   2.761644859400705e+00   3.725171100000000e+00  2.90794510e-01   1.37064762e+00   1.80220390e-01
C     4.499983534440965e+00   1.785494836908021e+00   3.714853800000000e+00  1.85010123e+00  -1.42459050e-01   2.32945260e-01
C     5.882291809171363e+00   2.155754713093561e+00   3.786464700000000e+00  1.39236445e+00   5.23023920e-01   1.55461952e+00
C     6.979961785644578e+00   1.227598238202339e+00   3.920513100000000e+00 -2.94272753e+00  -2.78473373e+00  -1.06105479e+00
C     8.323106303551265e+00   1.584387818578577e+00   3.968801100000000e+00  1.19824643e+00  -1.51933960e+00  -1.14724622e+00
C     1.867494404377565e+00   1.043895354983931e+00   3.815363100000000e+00 -3.44352844e+00  -8.26388300e-01  -1.01925558e+00
