64
Lattice="9.86 0 0 4.93 8.53901048131456 0 0 0 30 " PBC="1 1 1" Properties=species:S:1:pos:R:3:force:R:3 Energy="-510.2138656"
C     4.924474258799999e+00   8.244999882218300e+00  -4.385243999999986e-01  3.05696639e+00   3.69129914e+00  -1.08848110e-01
C     1.292044490700000e+00   4.873933119519464e-01  -4.837953000000006e-01 -2.25788038e+00   8.69618630e-01   1.09388086e+00
C     1.198171867700000e+00   9.814500407319607e-01   3.801024600000000e+00 -5.87727910e-01  -3.33558653e+00  -1.17725267e+00
C     2.449925637600000e+00   1.587325367917890e+00   3.901678200000000e+00 -5.18781840e-01   3.07975076e+00   1.64136220e-01
C     7.467563585399999e+00   8.408748387468229e+00  -5.074356000000009e-01 -1.93061105e+00  -4.09080014e+00   5.56927550e-01
C     3.738744774400000e+00   5.347217168284992e-01  -3.261518999999993e-01  7.40282860e-01  -9.24928550e-01  -1.28557476e+00
C     3.633584226200000e+00   9.314557567835520e-01   3.609632100000000e+00  2.20752483e+00   1.42352570e-01   1.32706480e-01
C     4.887138185600000e+00   1.675234993150118e+00   3.577249200000000e+00 -5.07546960e-01  -5.58605020e-01   1.97994760e-01
C     9.895091838599999e+00   8.357228267737149e+00  -3.967442999999982e-01  1.37520653e+00  -2.77929849e+00   1.65569690e+00
C     6.247812121700000e+00   4.722486937448280e-01  -3.436131000000024e-01 -1.85794539e+00   5.48850040e-01  -3.68967580e-01
C     6.100644670399999e+00   9.570119904689344e-01   3.462824400000000e+00  1.23469675e+00  -2.03076960e-01   5.72137650e-01
C     7.359772241299999e+00   1.638117366225340e+00   3.555605700000000e+00 -7.73173910e-01   6.84072890e-01  -3.32465460e-01
C     1.242804010590000e+01   8.395288089078290e+00  -3.451941000000005e-01 -2.40049921e+00  -3.89952151e+00   5.23579160e-01
C     8.704488802700000e+00   5.205870073908504e-01  -4.159694999999992e-01 -8.29848700e-02  -7.67885000e-02  -5.55221790e-01
C     8.591889771900000e+00   8.340359794094327e-01   3.636466200000000e+00 -5.85903700e-02   3.21420005e+00  -5.68649530e-01
C     9.804255898399999e+00   1.612898508844022e+00   3.716034000000000e+00  7.31107400e-02   9.40918000e-01   1.96798281e+00
C     1.216677214300000e+00   1.899044080242910e+00  -2.058225000000000e-01  9.32068800e-01   8.71818800e-01  -1.06786800e+00
C     2.500924269100000e+00   2.646010416881031e+00  -1.113552000000020e-01 -1.49968772e+00  -9.08752770e-01   2.50129660e-01
C     2.474034027800000e+00   3.047185852357046e+00   4.129850400000000e+00 -1.56247109e+00  -1.42162336e+00  -2.90135830e-01
C     3.646413663800000e+00   3.792933672199672e+00   4.012989300000000e+00  1.07789377e+00   7.28510810e-01  -1.89583900e-01
C     3.686749937800000e+00   1.912903321202474e+00  -2.603133000000000e-01  2.76386142e+00   1.68528656e+00   9.80559670e-01
C     5.011954249400000e+00   2.577413727821733e+00  -2.192475000000016e-01 -2.11381735e+00   5.84488830e-01  -5.24766230e-01
C     4.927924864400000e+00   3.069880151289952e+00   3.755888700000000e+00 -2.85206172e+00   1.34099003e+00   5.33316420e-01
C     6.095283196800000e+00   3.830150266255914e+00   3.691205400000000e+00  1.22490860e+00  -7.46067540e-01  -1.11740743e+00
C     6.197831929600000e+00   1.862563292719730e+00  -3.479495999999997e-01  2.17871097e+00   1.61503952e+00  -6.35438450e-01
C     7.461893395200001e+00   2.614153845093190e+00  -4.921085999999981e-01 -2.53863358e+00   2.62302850e-01   5.55818220e-01
C     7.290842509600000e+00   3.131333872692625e+00   3.521777700000000e+00  3.93813811e+00  -2.80217876e+00   1.22557127e+00
C     8.623647007799999e+00   3.794139380479448e+00   3.644848200000000e+00 -2.29408094e+00  -8.68709760e-01   2.74147850e-01
C     8.698123581100001e+00   1.972015218981007e+00  -5.223842999999988e-01 -2.93475838e+00  -3.19302989e+00   6.34024130e-01
C     9.814039236899999e+00   2.640069144169257e+00  -2.879657999999985e-01  6.11896729e+00   1.31467805e+00   4.61280100e-02
C     9.815762370500000e+00   3.044009425848591e+00   3.989424000000001e+00 -9.50049680e-01  -5.94399200e-02  -1.90382316e+00
C     1.105669809350000e+01   3.727932077332663e+00   4.176825300000000e+00  1.00931686e+00   1.09837334e+00  -1.36046006e+00
C     2.574086701600000e+00   4.054068908853163e+00   1.142907000000000e-01 -2.49740100e+00  -3.46603890e-01  -5.64519790e-01
C     3.815249007400000e+00   4.726244272839690e+00   9.706320000000000e-02 -1.12470874e+00   1.72688287e+00  -2.15737256e+00
C     3.587497698800000e+00   5.254011819533276e+00   4.007507100000001e+00  3.42348784e+00  -8.14550290e-01  -1.79132559e+00
C     4.943721422499999e+00   5.876566395889790e+00   3.587064900000000e+00 -5.29412190e+00   1.23752457e+00   2.01114256e+00
C     5.048313393800000e+00   3.995602474876813e+00  -2.269259999999989e-01 -3.18145519e+00   5.26728610e-01   1.34200149e+00
C     6.201629607199999e+00   4.733100415134291e+00  -4.007766000000004e-01  5.06043090e-01  -1.21087240e-01   5.78326930e-01
C     6.117574783400000e+00   5.247306476163752e+00   3.572919900000000e+00  1.65865247e+00  -2.22969723e+00  -7.79853660e-01
C     7.315634542900000e+00   5.938283631155875e+00   3.293934600000000e+00  1.96410102e+00  -1.27980925e+00   1.11335529e+00
C     7.401408605599999e+00   4.033643254224584e+00  -4.234161000000007e-01  2.68428284e+00  -1.48997850e-01  -2.41015520e-01
C     8.642266779700000e+00   4.770978697112628e+00  -3.049904999999988e-01  5.85823920e-01  -7.00109230e-01  -5.00817370e-01
C     8.570311408399998e+00   5.189463219172232e+00   3.484283400000000e+00  6.33710550e-01   5.61490400e-01  -1.34362450e-01
C     9.829367445000001e+00   5.843013805840411e+00   3.577488600000000e+00  9.93116210e-01   1.39935197e+00   6.59609800e-01
C     9.932230613200000e+00   4.062585717905915e+00  -2.587046999999991e-01 -3.08929096e+00  -4.09975600e-02   1.13326684e+00
C     1.109229841230000e+01   4.749049322738521e+00   4.657320000000000e-02  3.80589642e+00   6.58972830e-01   2.02855680e-01
C     1.110038657030000e+01   5.164060431505176e+00   3.925204200000000e+00 -3.08059440e+00   6.42738870e-01   1.86967820e-01
C     1.223829037120000e+01   6.012457831080501e+00   3.963168600000000e+00  1.03225941e+00  -2.83383084e+00  -6.91204400e-02
C     3.658543139999999e+00   6.231687873803391e+00  -1.569171000000011e-01  2.71178087e+00  -3.53835158e+00   1.10080969e+00
C     4.918184219700000e+00   6.885130783549418e+00  -3.086804999999977e-01  1.97895970e-01  -1.98050783e+00  -3.84402870e-01
C     4.934881981800000e+00   7.262989597008746e+00   3.541492200000000e+00 -1.14200424e+00   2.92541103e+00   3.77384860e-01
C     6.121708539100000e+00   8.074522892880443e+00   3.534232200000000e+00  6.93474410e-01  -8.28570450e-01  -5.85097050e-01
C     6.178512886500000e+00   6.119264713455494e+00  -3.736953000000014e-01 -2.26519350e-01   3.85970863e+00  -5.68309750e-01
C     7.384790315099999e+00   6.926620298449851e+00  -4.918025999999998e-01  1.53023635e+00  -7.38223980e-01   9.40382510e-01
C     7.357850823100000e+00   7.334889175321709e+00   3.292175400000000e+00  1.36941150e-01   2.37932533e+00   1.39578314e+00
C     8.621842775699999e+00   8.080267426790758e+00   3.428292300000000e+00 -3.06948460e-01  -2.93424919e+00  -5.46563630e-01
C     8.643252336000000e+00   6.181506841695786e+00  -3.009969000000012e-01 -3.85436000e-01   9.31214380e-01  -4.43734160e-01
C     9.905729595400000e+00   6.862476532575664e+00  -2.039594999999998e-01 -1.12681929e+00   2.54992226e+00  -3.46213120e-01
C     9.868427144799998e+00   7.289072858420954e+00   3.492398700000000e+00 -9.25161570e-01   1.36283639e+00  -3.14780370e-01
C     1.108877326510000e+01   8.067381376855602e+00   3.533158800000000e+00 -2.89555543e+00   4.82685990e-01   1.29669740e-01
C     1.114131296530000e+01   6.196002751276739e+00   4.911990000000000e-02 -3.31430129e+00  -1.25428452e+00  -1.35555078e+00
C     1.229592779000000e+01   6.887616745670460e+00  -1.681640999999985e-01  3.43352266e+00   3.06467589e+00   1.89953090e-01
C     1.226130203360000e+01   7.412606893815323e+00   3.751610700000000e+00  1.14423525e+00  -2.68375442e+00  -3.11487710e-01
C     1.352625084990000e+01   7.970725926309546e+00   3.648302700000000e+00  1.28093771e+00   1.32649491e+00  -1.43588270e-01
