64
Lattice="9.86 0 0 4.93 8.53901048131456 0 0 0 30 " PBC="1 1 1" Properties=species:S:1:pos:R:3:force:R:3 Energy="-511.53598776"
C     4.990944709300000e+00   7.645215089647335e+00  -6.672584999999991e-01  2.31001530e-01   2.73370637e+00   1.02520510e-01
C     6.218437209699999e+00   8.435571724918738e+00  -6.798374999999979e-01 -3.46305300e-01  -1.37052612e+00   1.04177222e+00
C     9.809166572799999e+00   9.119789569995105e-01   3.610554600000000e+00 -1.78136982e+00  -1.10041050e+00   8.15979340e-01
C     1.167589007100000e+00   1.584692534816591e+00   3.729207300000000e+00  2.46501114e+00  -2.24106734e+00  -5.15463650e-01
C     7.428057227599999e+00   7.713574394215289e+00  -6.390548999999979e-01  1.46568684e+00  -1.89649135e+00   2.98368990e-01
C     8.707384093100000e+00   8.330854253018098e+00  -4.196795999999985e-01 -8.16625830e-01   2.70434240e+00  -7.22706260e-01
C     2.436864835100000e+00   8.855783005677608e-01   3.629494800000000e+00 -4.58779060e-01  -1.65060518e+00  -1.79725770e-01
C     3.646652916700000e+00   1.572021838725738e+00   3.870695100000000e+00 -8.47513710e-01   7.97501480e-01  -5.22931000e-02
C     9.951388297399999e+00   7.644989232820139e+00  -5.534634000000018e-01 -1.05870435e+00  -8.79319860e-01   1.37103748e+00
C     1.118216974870000e+01   8.364435107192165e+00  -5.322051000000023e-01 -7.32885580e-01   2.43796670e-01   1.15641000e-02
C     4.871828760800001e+00   8.417992207873248e-01   3.871610100000000e+00 -1.54946231e+00   6.59925240e-01  -8.38910300e-01
C     6.024178299799999e+00   1.620276384678952e+00   3.779578500000000e+00  2.85816000e+00  -2.85894209e+00  -2.42671850e-01
C     1.240762187000000e+01   7.683762488486884e+00  -4.211787000000022e-01  8.93390560e-01   1.40945640e-01  -5.60673270e-01
C     1.365523453850000e+01   8.367087836187880e+00  -5.980434000000017e-01 -1.21392851e+00   2.21063128e+00   6.17676370e-01
C     7.288902949000000e+00   7.873956479973584e-01   3.700253400000000e+00  9.75741080e-01   3.82927861e+00   4.46427040e-01
C     8.546542448700000e+00   1.593835594897947e+00   3.708873600000000e+00 -5.77750170e-01  -2.00213593e+00  -2.25217250e-01
C     1.278415357800000e+00   1.266646928066520e+00  -3.506558999999996e-01  1.93987890e-01   1.08554844e+00   2.80956330e-01
C     2.489625596500000e+00   1.994661699455225e+00  -1.196118000000013e-01  1.71887290e+00  -1.15718707e+00   3.39938620e-01
C     1.108089068810000e+01   2.918162684855818e+00   4.001506200000000e+00 -1.22729305e+00   3.23941284e+00   5.86392980e-01
C     2.377292144800000e+00   3.727040860808866e+00   4.155169800000000e+00  1.53932875e+00   3.50790060e-01  -5.61014760e-01
C     3.744857136300000e+00   1.258359049884737e+00  -2.100347999999990e-01  1.18060398e+00  -4.28700330e-01  -1.75601493e+00
C     5.030156893999999e+00   1.983586517472560e+00  -4.645872000000004e-01 -2.18246868e+00  -2.56356382e+00   1.16843726e+00
C     3.618554776100000e+00   3.037227914505585e+00   4.032152099999999e+00 -7.22149600e-02  -1.35833268e+00  -4.23324110e-01
C     4.828274873000000e+00   3.732104494023505e+00   3.875692799999999e+00  6.57411350e-01   1.46663244e+00   1.16417830e-01
C     6.249646574700000e+00   1.244657182888319e+00  -6.131045999999998e-01 -1.19429183e+00   2.42156500e-02   5.31410470e-01
C     7.445304438200000e+00   1.956420509531488e+00  -5.697609000000021e-01  1.73778493e+00   1.55118106e+00   8.20812400e-02
C     6.036562410499999e+00   3.024810656245778e+00   3.702489600000000e+00  2.10373843e+00  -7.36384200e-02   9.30032610e-01
C     7.350750341299999e+00   3.704433915953171e+00   3.751579200000000e+00 -2.02305390e+00   9.04539560e-01  -6.87467730e-01
C     8.698958131500000e+00   1.325368934626537e+00  -5.289044999999994e-01  2.41654550e-01  -3.01728552e+00  -6.57659000e-02
C     9.922356759900000e+00   2.007042239969967e+00  -2.968530000000023e-01 -4.55016310e-01  -5.33020230e-01  -8.32187650e-01
C     8.565549077700000e+00   3.000186028603764e+00   3.830442900000000e+00  7.38041640e-01  -1.00144137e+00   2.46163700e-02
C     9.856621668199999e+00   3.600492896275475e+00   4.022910900000000e+00 -2.67874131e+00   4.06951831e+00  -1.01983313e+00
C     2.558250999300000e+00   3.412145124244657e+00   1.282752000000000e-01 -1.17972676e+00   4.69549120e-01  -1.29354902e+00
C     3.776833954400000e+00   4.099199287042059e+00  -1.234497000000019e-01  1.08487794e+00   8.37958300e-01  -6.88743190e-01
C     1.226578936890000e+01   5.186187910922419e+00   4.172890500000000e+00 -2.09015422e+00  -1.03228418e+00  -2.77295440e-01
C     3.635926666400000e+00   5.867279624262055e+00   4.044549600000000e+00  7.95089770e-01  -2.78775580e-01  -5.65978030e-01
C     4.995486964800000e+00   3.352847759158498e+00  -4.128267000000001e-01  9.28680020e-01   2.87611349e+00   1.49279610e-01
C     6.274191664299999e+00   4.101536670380749e+00  -5.861888999999998e-01 -2.98102176e+00  -9.06160700e-02   2.74476570e-01
C     4.860318788400000e+00   5.187886917837624e+00   3.871932000000000e+00  2.11547950e-01  -2.09795485e+00  -1.10637500e-02
C     6.090967326900000e+00   5.844095954638542e+00   3.628680600000000e+00  5.43645070e-01   1.58842418e+00  -2.02850630e-01
C     7.501322401299999e+00   3.401120237033719e+00  -5.350275000000018e-01 -2.12492708e+00  -3.93782220e-01  -4.60167760e-01
C     8.666177329000000e+00   4.146779507337667e+00  -4.368851999999990e-01  2.56328056e+00  -3.12183469e+00   9.13902830e-01
C     7.341751760199999e+00   5.131721405625214e+00   3.628411500000000e+00 -9.95112600e-01  -1.04051323e+00   6.17234130e-01
C     8.573789671300000e+00   5.818622037014186e+00   3.716646900000000e+00 -8.12655700e-01  -9.17683840e-01  -5.80543370e-01
C     9.915232909899999e+00   3.399921872302956e+00  -2.095130999999988e-01  1.05114840e+00   2.91527109e+00   9.75773110e-01
C     1.117714869160000e+01   4.178615500110251e+00   1.057164000000000e-01 -9.91116680e-01  -1.57647213e+00  -1.14903310e+00
C     9.764997470299999e+00   5.122288446138064e+00   3.934715100000000e+00  2.38594412e+00  -1.92489146e+00   1.08718224e+00
C     1.097277909120000e+01   5.903369239715147e+00   4.076181300000000e+00  1.00344265e+00  -3.59363379e+00  -4.57218070e-01
C     3.782858858100000e+00   5.577158289583680e+00  -3.219095999999979e-01 -2.98927840e+00  -2.67141995e+00   1.68098916e+00
C     4.918336704600000e+00   6.271186433020309e+00  -5.532654000000008e-01  3.65009392e+00  -1.40687926e+00  -9.95255430e-01
C     1.356002356840000e+01   7.247735850247692e+00   3.849018600000000e+00 -2.05529113e+00   2.00818285e+00   1.49696820e-01
C     4.884946307600000e+00   8.015014955795849e+00   3.680914500000000e+00  7.97968840e-01  -3.44521510e-01  -1.04661584e+00
C     6.140279849100000e+00   5.515406556715255e+00  -6.717770999999999e-01  3.34314113e+00   1.03203775e+00   2.82132930e-01
C     7.432515278700000e+00   6.263864316923814e+00  -6.979131000000010e-01 -6.95286310e-01  -7.03380630e-01   7.48032270e-01
C     6.126255773900000e+00   7.317053573351923e+00   3.493108800000000e+00 -7.83001580e-01  -2.09566275e+00   5.27513740e-01
C     7.385587643999999e+00   7.944747609336138e+00   3.376994100000000e+00 -1.39124936e+00   2.45451851e+00   1.57956622e+00
C     8.702123684499998e+00   5.510808128791565e+00  -4.607951999999997e-01 -3.18369557e+00   2.20145383e+00  -9.41712920e-01
C     9.889157696200000e+00   6.186760553283710e+00  -3.713334000000010e-01  3.35898132e+00   3.18303922e+00   4.08079840e-01
C     8.547568677499999e+00   7.197107459381039e+00   3.572473500000000e+00  2.31972612e+00   2.51685504e+00   5.33824600e-01
C     9.790170444699999e+00   7.954014399679348e+00   3.791417100000000e+00 -1.97720167e+00   6.14136020e-01  -5.12347830e-01
C     1.117322993320000e+01   5.609806086082599e+00  -2.533529999999828e-02 -9.46784920e-01  -1.92126375e+00  -9.70361850e-01
C     1.241756040490000e+01   6.296384284435845e+00  -1.898862000000001e-01 -5.57142070e-01  -5.56886970e-01  -1.86619940e-01
C     1.096474052900000e+01   7.258661514156852e+00   3.897063300000000e+00  3.37071656e+00   9.36573620e-01   1.36762420e-01
C     1.228689933310000e+01   7.935431463512352e+00   3.819140100000000e+00 -1.39950284e+00   2.32943550e-01   1.53468370e-01
