72
Lattice="7.395 0 0 3.6975 6.40425786098592 0 0 0 13.6 " PBC="1 1 1" Properties=species:S:1:pos:R:3:force:R:3 Energy="-572.48984568"
C     1.102459500577500e+01   6.297623956629806e+00   3.996822400000000e-02  2.25219195e+00  -4.97112563e+00  -3.78838720e-01
C     1.228088019750000e+00   4.339845338829001e-01   1.350120225600000e+01 -9.54401310e-01   2.12697100e+00   8.74920380e-01
C     1.308554345850000e+00   1.003420530441529e+00   3.288059896000000e+00  3.64642950e+00  -1.10925688e+00   7.25344730e-01
C     2.639253130125000e+00   1.585355781108099e+00   3.084721128000000e+00 -6.42997710e-01   4.37471579e+00   1.69179398e+00
C     6.156276343349999e+00   6.177808425476688e+00   1.403573040000000e-01  6.70409200e-02   1.73567815e+00  -2.42651810e-01
C     3.695738178225000e+00   5.015529766477230e-01   1.591467920000000e-01 -2.62578700e+00   7.71428240e-01  -1.03487006e+00
C     3.895570638000000e+00   1.013248504553485e+00   3.366501024000000e+00 -8.22614800e-01   5.22604080e-01   2.33837640e-01
C     5.109721560075000e+00   1.732762328101405e+00   3.593092664000000e+00 -5.27670160e-01   2.92838770e-01  -5.16548140e-01
C     8.554334634149999e+00   6.178701179022372e+00   1.899163840000000e-01  3.32213256e+00   3.48965231e+00  -2.97914820e-01
C     6.108023339775000e+00   4.624047730308006e-01   1.315593280000000e-01 -7.94471350e-01   4.60449865e+00   9.63868230e-01
C     6.339636588524999e+00   1.008755213196331e+00   3.745459584000000e+00 -4.68957160e-01  -3.37572730e-01  -1.15356698e+00
C     7.551135626625000e+00   1.740736525733205e+00   3.433843464000000e+00 -1.94023429e+00  -2.29444570e+00   6.38306280e-01
C     1.236148532775000e+00   1.816350317434653e+00   1.340873123200000e+01 -7.48559300e-01   5.11565282e+00   1.40890118e+00
C     2.497155653850000e+00   2.584427628334953e+00   1.319247028800000e+01 -3.44493158e+00   2.24111293e+00   2.21947498e+00
C     2.671756484550000e+00   3.078449902207680e+00   3.222302536000000e+00 -2.08463548e+00   1.41592088e+00   7.68620510e-01
C     3.789362760600000e+00   3.905058479521399e+00   3.569706784000000e+00  2.37212424e+00  -4.24760706e+00  -6.70649810e-01
C     3.668240943000000e+00   1.918612290134140e+00   1.349415990400000e+01  1.49646127e+00  -6.29828190e-01   4.23978670e-01
C     4.855670735100000e+00   2.636729537170529e+00   1.617956640000000e-01  1.71036397e+00   8.33648760e-01   3.80549320e-01
C     5.051808024300000e+00   3.161600864984562e+00   3.563766576000000e+00  1.91923302e+00   3.15349180e-01  -3.46286240e-01
C     6.360329721224999e+00   3.808059525931260e+00   3.458718544000000e+00 -2.80847908e+00   2.98485774e+00   9.88804640e-01
C     6.117587293275000e+00   1.931797824514358e+00   3.680117840000000e-01  7.21203270e-01   4.69960070e-01  -1.60920221e+00
C     7.383716339249999e+00   2.697575238331974e+00   3.310269920000000e-01  8.54682800e-01  -1.45699336e+00  -1.92167437e+00
C     7.544814084824999e+00   3.090607040860740e+00   3.305132792000000e+00  1.65591116e+00   3.61990455e+00   2.20985400e-01
C     8.831777655900000e+00   3.854572690129762e+00   3.284446104000000e+00 -1.59150747e+00  -1.04773024e+00   1.91543900e-02
C     2.421967509000000e+00   4.088278148808453e+00   1.335914984800000e+01  1.70678081e+00  -5.37586530e-01   1.18489753e+00
C     3.686829495675000e+00   4.837433951776226e+00   1.355218892800000e+01 -1.17032751e+00  -1.93393350e+00   5.69421000e-03
C     3.785170572075000e+00   5.255418215906859e+00   3.837401432000000e+00  2.69489750e+00   1.13549157e+00  -1.25394907e+00
C     5.024249595450000e+00   6.061687318555268e+00   3.667194304000000e+00  1.38130007e+00  -3.57944630e+00  -8.13314130e-01
C     4.898157635324999e+00   4.060879004533751e+00   1.678996160000000e-01  6.47903090e-01   1.62427941e+00   3.19258760e-01
C     6.192082896374999e+00   4.847205696504171e+00   4.301843200000000e-01 -2.48624186e+00  -2.39142232e+00  -1.25054428e+00
C     6.323846340825000e+00   5.316072429758290e+00   3.527519992000000e+00 -5.49095820e-01  -4.46051330e-01  -2.32325100e-01
C     7.574311963350000e+00   6.056641403787375e+00   3.451352104000000e+00 -1.17362425e+00  -3.73051133e+00   1.84977100e-02
C     7.452079749525000e+00   4.259033531235484e+00   4.308728880000000e-01 -2.84924955e+00  -7.85977931e+00  -6.84405800e-01
C     8.617073666249999e+00   4.845894296622179e+00   1.418395680000000e-01  2.27441122e+00  -3.11431995e+00  -1.20253336e+00
C     8.777761987649999e+00   5.304687388432833e+00   3.472007920000000e+00  6.99668600e-01  -2.44356176e+00   6.05278140e-01
C     1.000260149482500e+01   5.916488127118569e+00   3.784607184000000e+00 -1.73294286e+00   4.35756905e+00  -9.86533170e-01
C     7.423590548999999e+00   1.760904494373024e-01   6.956619639999999e+00 -1.96780046e+00   1.37647050e-01  -1.07882055e+00
C     1.243777954275000e+00   8.591315121318930e-01   6.710628008000000e+00 -3.57209080e-01   9.06527260e-01   2.77302570e-01
C     1.107870980400000e+00   4.651837726439905e-01   1.008468696000000e+01 -3.64689200e-02  -7.62428180e-01   4.16229060e-01
C     2.349593087700000e+00   1.165893478305956e+00   9.810583311999999e+00 -2.13970401e+00  -1.11882720e-01   6.79270780e-01
C     2.462435426325000e+00   1.703229669363222e-01   6.799817896000000e+00 -6.91478380e-01  -5.21548890e-01  -4.21776260e-01
C     3.636813745950000e+00   9.155612853711325e-01   6.775760040000000e+00  8.28746970e-01   1.57304220e-01  -4.03473560e-01
C     3.535515630900000e+00   4.600081076118528e-01   9.907719951999999e+00  2.22546701e+00  -6.86180240e-01   9.99646720e-01
C     4.775658425025000e+00   1.176834320306245e+00   1.001002704000000e+01  1.29574780e+00  -4.89317400e-01   4.38165960e-01
C     4.845489336075000e+00   2.472144080808402e-01   6.894028631999999e+00  7.13495350e-01  -3.63523175e+00  -8.24654300e-02
C     6.068867591249999e+00   8.958906073541424e-01   6.889558719999999e+00  3.53758153e+00  -1.71885580e+00   1.14322580e-01
C     6.061350056099999e+00   3.687101603261076e-01   1.028984268800000e+01 -1.81895532e+00   2.44948149e+00  -9.44575920e-01
C     7.253379094500000e+00   1.176725768135518e+00   1.027172735200000e+01  6.64157980e-01  -1.74270682e+00  -6.92096440e-01
C     8.658392748075000e+00   2.292787011564450e+00   6.518646192000000e+00 -5.96060830e-01  -1.16400723e+00   1.17835422e+00
C     2.459019306075000e+00   3.047158250005670e+00   6.522242712000000e+00  5.80059520e-01   4.41036080e-01   8.63133890e-01
C     2.308052747475000e+00   2.557451293164168e+00   9.702990584000000e+00  4.18180000e-04   2.31274663e+00   1.48408080e+00
C     3.568070898225000e+00   3.355701816673807e+00   9.776599632000000e+00 -4.38372490e-01  -2.16210582e+00   8.33951250e-01
C     3.675610208400000e+00   2.307923410973981e+00   6.610831480000000e+00  3.43344960e-01   1.48961453e+00   2.00200640e-01
C     4.917639134250000e+00   3.008257314784722e+00   6.667752648000000e+00  1.47044257e+00   5.30092160e-01   7.32093680e-01
C     4.787634516600000e+00   2.671475582019645e+00   9.930743392000000e+00  1.35158738e+00  -3.24247032e+00   1.06325053e+00
C     6.069966968925000e+00   3.333630310470260e+00   1.023984881600000e+01 -3.22709219e+00  -2.55660583e+00  -7.78073490e-01
C     6.152820696825000e+00   2.263976689070296e+00   6.775919160000000e+00 -7.93109900e-01   9.04699770e-01  -3.92664180e-01
C     7.422679521975000e+00   2.890250858391897e+00   6.697090296000000e+00 -1.05904525e+00   4.28736795e+00   1.67570810e-01
C     7.247803079624999e+00   2.613330108099711e+00   1.024175145600000e+01 -9.87362890e-01  -3.41005987e+00  -3.66946190e-01
C     8.412190791224999e+00   3.227614610111291e+00   9.982970655999999e+00  4.28989822e+00   3.02201513e+00  -2.99552760e-01
C     9.893770906724999e+00   4.455794491426879e+00   6.765990208000000e+00 -1.09742807e+00   8.28380830e-01   1.20038850e-01
C     3.787021022924999e+00   5.160163461944892e+00   6.907913687999999e+00 -2.08157072e+00  -3.09106940e-01  -6.34805320e-01
C     3.636024958275000e+00   4.724289928163606e+00   1.008846123200000e+01 -1.98273889e+00  -1.17649640e+00  -2.70251700e-01
C     4.836897011625000e+00   5.389812207524745e+00   1.018179245600000e+01 -1.67202000e-03   2.85663582e+00  -3.37434640e-01
C     5.036456115225000e+00   4.461724193779453e+00   6.776538368000000e+00 -5.57165205e+00  -2.47712763e+00  -1.07565830e-01
C     6.165481047749999e+00   5.156219655912126e+00   6.815198272000000e+00  3.86759303e+00   5.81471800e-02   3.76736770e-01
C     6.047253041550000e+00   4.674010676087954e+00   1.022453480800000e+01 -1.23159060e-01   3.52961953e+00  -5.17251640e-01
C     7.221555747300000e+00   5.436364053440720e+00   1.013854132800000e+01  2.13226619e+00   1.10763710e-01  -4.29502270e-01
C     7.394928860100000e+00   4.377359560095522e+00   6.819138600000000e+00  3.30755900e-02   2.07165540e-01  -6.12388570e-01
C     8.559738160649999e+00   5.163122421203948e+00   6.864703632000000e+00  2.83234054e+00  -1.09752990e-01  -2.67073270e-01
C     8.438380516499999e+00   4.688994077777210e+00   1.007932692800000e+01  2.38991917e+00  -1.04779730e-01   3.76100090e-01
C     9.795341497049998e+00   5.344130828337101e+00   1.021315772800000e+01 -3.61120823e+00   2.21417480e+00  -7.55105730e-01
