72
Lattice="7.395 0 0 3.6975 6.40425786098592 0 0 0 13.6 " PBC="1 1 1" Properties=species:S:1:pos:R:3:force:R:3 Energy="-577.85735258"
C     3.715793603100000e+00   6.304094882814129e+00   1.325380588000000e+01 -2.67061733e+00   1.43650706e+00  -2.83211840e-01
C     1.145111276025000e+00   6.651795875230506e-01   1.320020175200000e+01  3.32533220e+00  -5.99149780e-01   3.39325330e-01
C     1.301529909300000e+00   8.141294966180377e-01   3.566750144000000e+00 -6.07636370e-01   9.39174600e-02   2.10761280e-01
C     2.553662993400000e+00   1.518837508547159e+00   3.535754384000000e+00 -2.85708074e+00   2.28939103e+00  -9.63461400e-02
C     6.036759795375000e+00   6.354078386261806e+00   1.326342543200000e+01  5.01265202e+00  -1.28646227e+00   2.83954300e-01
C     3.666080863500000e+00   6.895028948327521e-01   1.325867291200000e+01  4.72720390e-01  -1.44562774e+00  -6.16282000e-02
C     3.707534978025000e+00   7.772638345449979e-01   3.602946952000000e+00  2.97368321e+00   3.82469086e+00   3.23925870e-01
C     4.924208889225000e+00   1.546002769324814e+00   3.706013600000000e+00  2.67012963e+00  -1.18064310e-01  -1.17881257e+00
C     8.686205195174999e+00   6.334155764740604e+00   1.328993373600000e+01 -3.59521162e+00   3.13660070e-01  -3.29458710e-01
C     6.205651538174999e+00   6.756468346545919e-01   1.328145576800000e+01 -2.01379556e+00  -1.69651241e+00   2.86834790e-01
C     6.249138612150000e+00   8.508403677786013e-01   3.693815488000000e+00 -2.68116301e+00  -8.66742110e-01  -1.46628470e-01
C     7.460559004424999e+00   1.540778688103255e+00   3.585283816000000e+00  4.81448920e-01  -2.24052400e-01   1.55750470e-01
C     1.238550798525000e+00   2.068342494006789e+00   1.316794513600000e+01 -2.15889850e+00  -1.14267760e-01   8.37772470e-01
C     2.420551958100000e+00   2.780233969849736e+00   1.314113124000000e+01  2.22438303e+00  -6.96312600e-02  -4.28984700e-02
C     2.528867891175000e+00   3.031716559623952e+00   3.541121896000000e+00  4.23416620e-01  -3.54837014e+00   6.46460880e-01
C     3.832912174425000e+00   3.685097390763789e+00   3.710767480000000e+00 -5.59315071e+00   3.05681340e-01  -1.26435985e+00
C     3.698950825050000e+00   2.123865680503367e+00   1.316253505600000e+01 -1.28586891e+00  -2.39674748e+00   1.21033189e+00
C     4.916445174525000e+00   2.797972931568415e+00   1.335545296000000e+01  1.34525690e-01  -2.15837395e+00  -6.18165390e-01
C     4.990007417699999e+00   3.010727821296796e+00   3.618797752000000e+00  2.66021910e-01  -4.30463853e+00   9.87562900e-01
C     6.201039535500000e+00   3.658288975234094e+00   3.654686656000000e+00  2.16122555e+00   1.02873030e+00  -3.10220750e-01
C     6.133089875474999e+00   2.090515699825153e+00   1.337111948000000e+01  1.83285699e+00  -8.23470840e-01   5.37276000e-03
C     7.410110610224999e+00   2.776554403496274e+00   1.335630799200000e+01 -9.15418490e-01  -2.54486571e+00  -2.40990110e-01
C     7.427878243950000e+00   2.944913696887563e+00   3.581749992000000e+00 -6.33519520e-01  -4.23350890e-01  -1.79728780e-01
C     8.610663902100001e+00   3.647631137388639e+00   3.543711472000000e+00  3.69560513e+00   1.97762104e+00   7.13302820e-01
C     2.428531791675000e+00   4.176749576887688e+00   1.314099088800000e+01  8.88991160e-01   1.67389377e+00   4.00576650e-01
C     3.700386268500000e+00   4.921951647223010e+00   1.317474554400000e+01 -3.43695670e-01  -2.50073236e+00   8.74511930e-01
C     3.757199982900000e+00   5.065800500889929e+00   3.714346592000000e+00 -3.72271220e-01   1.89841559e+00   8.68578600e-02
C     4.929596849250000e+00   5.786590500901611e+00   3.688564664000000e+00  4.42874909e+00   7.52755540e-01  -5.16366230e-01
C     4.945185915974999e+00   4.153143866671200e+00   1.333423709600000e+01 -1.29655691e+00   3.67406284e+00  -3.55181420e-01
C     6.151024192500000e+00   4.867043589693886e+00   1.337066292800000e+01  1.41655010e-01   1.59000004e+00   2.80300430e-01
C     6.261219638775000e+00   5.068930325748689e+00   3.675322752000000e+00 -2.56591101e+00   1.38830622e+00  -4.16626080e-01
C     7.472832448949999e+00   5.835483551363466e+00   3.613126280000000e+00 -1.05758477e+00  -4.13322617e+00   5.89044520e-01
C     7.417350832875000e+00   4.114527600712129e+00   1.342678264800000e+01 -1.72640388e+00   5.07580983e+00  -1.04713656e+00
C     8.588212608149998e+00   4.867581419268969e+00   1.320307924000000e+01  1.98760945e+00   1.82725424e+00   1.27269474e+00
C     8.668132887450000e+00   5.081932314098641e+00   3.679763968000000e+00  1.15557225e+00   1.12987584e+00  -8.15023230e-01
C     9.946865860499999e+00   5.818618450629785e+00   3.704781168000000e+00 -1.88225701e+00  -1.09738743e+00  -3.95229500e-02
C     7.367666859824999e+00   6.289115707935060e-02   7.024430055999999e+00  4.15109481e+00  -9.83109100e-01  -6.76316010e-01
C     1.268994164775000e+00   8.159551584061879e-01   6.879408496000000e+00 -6.74098540e-01  -2.44254559e+00   3.63733640e-01
C     1.161901438650000e+00   6.238956279523968e-01   1.021006522400000e+01  1.78057222e+00  -1.06791220e+00   3.14852850e-01
C     2.447579869650000e+00   1.326993609455514e+00   1.018822335200000e+01 -2.71714350e+00  -6.90248200e-02  -3.49856500e-02
C     2.535166175700000e+00   6.630340970973719e-02   6.790420296000000e+00 -2.95833029e+00  -5.15340070e-01   5.27046280e-01
C     3.742136367900000e+00   7.617595745639881e-01   6.747092328000000e+00 -2.46933600e-01   7.49367710e-01   3.50536360e-01
C     3.635729306175000e+00   5.805567982047833e-01   1.032751101600000e+01 -1.04522179e+00   3.00720739e+00  -1.11482318e+00
C     4.840618767224999e+00   1.266607798050996e+00   1.022962066400000e+01  2.20564192e+00   2.28257207e+00   5.32085500e-01
C     4.956654008025000e+00   5.367005044220820e-02   6.881971144000000e+00  1.20766847e+00   6.88337700e-01   4.46979300e-01
C     6.200545586474999e+00   7.675736800621891e-01   7.023205511999999e+00 -2.24443738e+00   2.03625930e-01  -1.04472151e+00
C     6.078341732475000e+00   6.083808649884966e-01   1.030229362400000e+01  1.24343752e+00  -4.42901700e-01  -5.35900270e-01
C     7.342196778975000e+00   1.314765383540209e+00   1.024402632800000e+01 -1.93721388e+00  -1.17569480e-01  -5.69400080e-01
C     8.643621087674999e+00   2.205842422601618e+00   6.878233048000000e+00  3.61318000e-03   1.28920316e+00  -8.27220930e-01
C     2.492734959825000e+00   2.919076807275229e+00   6.735028175999999e+00 -1.04631914e+00  -4.85549850e-01   1.32377352e+00
C     2.384461141275000e+00   2.771293433749441e+00   1.010102355200000e+01  5.78440970e-01  -2.21966896e+00   5.07605630e-01
C     3.596340615149999e+00   3.469259491301604e+00   1.011444172000000e+01  2.39922251e+00  -1.06518191e+00   3.34675980e-01
C     3.686792520675000e+00   2.194642144115421e+00   6.727738168000000e+00  3.01152434e+00   7.80276170e-01   3.77458090e-01
C     5.007045830475000e+00   2.944168305315237e+00   6.815023784000000e+00 -3.48547244e+00  -2.28496774e+00   2.02406900e-02
C     4.918028333100000e+00   2.702723236970157e+00   1.019322162400000e+01 -3.96111661e+00   7.42211620e-01  -3.39954530e-01
C     6.113419175474999e+00   3.415033935532619e+00   1.024520490400000e+01 -1.07221983e+00   1.66530075e+00  -4.15636410e-01
C     6.178097176575000e+00   2.171734498005673e+00   6.893768055999999e+00  1.27870708e+00   2.55382748e+00   2.51432990e-01
C     7.402532140275000e+00   2.961248845283329e+00   6.881653991999999e+00  6.49554430e-01  -2.60215126e+00   2.16016100e-01
C     7.286822834100000e+00   2.714522569736578e+00   1.017410641600000e+01  3.28336279e+00   2.81388950e-01   7.79816010e-01
C     8.549151589575001e+00   3.427116848837081e+00   1.020364779200000e+01 -4.85855350e-01   1.91082127e+00  -3.95321280e-01
C     9.877542357374999e+00   4.333362116469586e+00   6.927506256000000e+00  1.43961823e+00  -9.65857190e-01  -8.37074540e-01
C     3.717743923425000e+00   5.002196293740446e+00   6.948360496000000e+00 -1.18235834e+00   2.89716460e+00   2.59372670e-01
C     3.569467924650000e+00   4.865823450486398e+00   1.016848104800000e+01  3.31504555e+00   4.10982680e-01   4.17301030e-01
C     4.831059694425000e+00   5.580673053034880e+00   1.025797938400000e+01  1.25972408e+00  -2.75075820e-01  -6.76908050e-01
C     4.936653158250000e+00   4.353007753838344e+00   6.878423856000000e+00  1.13715824e+00  -1.54421202e+00  -1.19192020e-01
C     6.154848812550000e+00   5.018890464831844e+00   6.863170776000000e+00  2.50169691e+00   2.69158660e+00  -2.93904080e-01
C     6.111524354625000e+00   4.861426351082302e+00   1.027546599200000e+01 -1.18043612e+00   1.16761975e+00   1.95477270e-01
C     7.321808579100000e+00   5.650615041847777e+00   1.036222950400000e+01  8.79389950e-01  -5.86523497e+00  -5.00566910e-01
C     7.433149584824999e+00   4.356796576830899e+00   6.847049199999999e+00 -8.51823150e-01  -7.44823100e-02   2.51899010e-01
C     8.701027067624999e+00   5.056841648612154e+00   6.900888608000000e+00 -2.74925412e+00   2.00980500e-02  -8.33358500e-02
C     8.622553472174999e+00   4.889643255043147e+00   1.031494176000000e+01 -4.37658725e+00  -1.12848800e+00  -4.14895820e-01
C     9.795698231849999e+00   5.589008386767406e+00   1.027435296800000e+01 -1.69330410e-01   8.50334630e-01  -1.86942100e-01
