72
Lattice="7.395 0 0 3.6975 6.40425786098592 0 0 0 13.6 " PBC="1 1 1" Properties=species:S:1:pos:R:3:force:R:3 Energy="-579.78067331"
C     3.718380263175000e+00   6.249514659244857e+00   1.353478079200000e+01 -1.30327005e+00  -2.80231380e-01  -4.82550050e-01
C     1.272060094800000e+00   5.122080606622981e-01   1.357242096800000e+01 -1.62451439e+00   2.90669051e+00  -1.18911500e-01
C     1.352003557425000e+00   9.785761727123383e-01   3.621346120000000e+00  5.95598380e-01  -7.63189650e-01  -4.27801380e-01
C     2.572149014400000e+00   1.696603824181266e+00   3.724272416000000e+00  6.71768640e-01  -3.79183470e-01  -1.17839341e+00
C     6.202264739099999e+00   6.276204980259615e+00   1.348977744000000e+01 -2.50032204e+00  -1.84507206e+00   2.34185050e-01
C     3.694326213900000e+00   5.585432505348696e-01   1.349218844800000e+01 -1.89098260e-01   2.89518020e-01  -3.16706830e-01
C     3.809281710750000e+00   9.882251478171072e-01   3.605710607999999e+00 -1.44643437e+00  -2.47721717e+00   3.92442160e-01
C     5.030951388150000e+00   1.615489415403864e+00   3.586898408000000e+00  9.97017670e-01   1.33754439e+00  -6.93594750e-01
C     8.563675221675000e+00   6.232679914693432e+00   1.346965392800000e+01  2.33933034e+00   8.62736740e-01  -3.15239560e-01
C     6.105453429375000e+00   4.964722227170706e-01   1.350299147200000e+01  2.04236480e+00   1.10790551e+00   3.29015350e-01
C     6.286146741750001e+00   9.149843898231037e-01   3.480859344000000e+00 -4.72202000e-03   1.09789282e+00   5.29147140e-01
C     7.516516155975000e+00   1.661102525202721e+00   3.550387168000000e+00 -2.43009940e-01  -1.93224625e+00   5.69836500e-02
C     1.221084289200000e+00   1.976379080286811e+00   2.292470400000000e-02  2.54158180e-01   2.62355480e-01  -6.86037900e-01
C     2.457342563775000e+00   2.695890854472216e+00   3.911536800000000e-02 -5.91669680e-01   7.05876100e-01  -1.06680498e+00
C     2.589003920250000e+00   3.102037040076374e+00   3.631260792000000e+00 -9.77054070e-01   1.69301484e+00   2.88190350e-01
C     3.803674525950000e+00   3.849110626686125e+00   3.622511368000000e+00  1.34884079e+00  -1.88374572e+00  -1.25123483e+00
C     3.691350318000000e+00   1.948238643164814e+00   1.349265900800000e+01 -8.95956330e-01   2.07186727e+00   1.62551727e+00
C     4.911480726150000e+00   2.638307546307233e+00   7.342776000000000e-03  2.53348070e-01   2.00201330e+00  -1.11334146e+00
C     4.997948538450000e+00   3.034492869448841e+00   3.552116680000000e+00  2.22974611e+00   1.99052827e+00   1.04357157e+00
C     6.306991656825000e+00   3.723978536827949e+00   3.606358240000000e+00 -2.29241073e+00   1.77848805e+00  -5.74009200e-01
C     6.107484392174999e+00   1.902828932595591e+00   1.355146758400000e+01  1.98272189e+00   2.37528122e+00  -2.22327810e-01
C     7.382615852325000e+00   2.714726289179104e+00   1.349252491200000e+01 -1.16762857e+00  -1.49316342e+00   1.25108353e+00
C     7.532228423399999e+00   3.035132270553583e+00   3.612086560000000e+00  2.51094000e-02   2.70697383e+00  -3.43019190e-01
C     8.739621683550000e+00   3.825923754933681e+00   3.576058392000000e+00  3.02677470e-01  -4.97785510e-01   7.92562120e-01
C     9.803105766374999e+00   4.175078706012014e+00   1.355878492800000e+01  2.17976704e+00  -2.46689676e+00  -5.57136690e-01
C     3.683476676625000e+00   4.851690854453844e+00   1.349213717600000e+01  1.21217190e-01  -1.23700598e+00   7.51568710e-01
C     3.865481085525000e+00   5.264581812308419e+00   3.448023504000000e+00 -1.16609759e+00  -1.58416909e+00   9.62162280e-01
C     5.081581995150000e+00   5.957462889119742e+00   3.503214752000000e+00  4.41324120e-01  -2.97983580e-01   4.07373650e-01
C     4.927745252175000e+00   4.123987586167449e+00   1.355132437600000e+01 -1.32414827e+00  -1.29111712e+00  -1.29706360e-01
C     6.128148832275000e+00   4.845260595306932e+00   1.347823988000000e+01  5.05719220e-01   2.38232510e-01   4.17388880e-01
C     6.299562750750000e+00   5.194949405320475e+00   3.580523408000000e+00  8.58958100e-02  -5.15492870e-01  -2.16719470e-01
C     7.520764472549999e+00   5.935412388881977e+00   3.570729096000000e+00 -8.74504890e-01   1.24407831e+00   5.43814580e-01
C     7.340692081349999e+00   4.159784121433341e+00   1.350735000000000e+01  1.76766530e+00  -2.32583688e+00  -8.94965540e-01
C     8.604191761125000e+00   4.860016005416372e+00   1.340922001600000e+01 -1.85866210e+00  -1.84631094e+00   1.38824589e+00
C     8.752536644325000e+00   5.285651180242033e+00   3.614496888000000e+00  6.71410200e-02  -3.38154145e+00  -1.07182267e+00
C     1.000239639450000e+01   5.909333226194798e+00   3.482063080000000e+00  1.85683500e-01   1.83298714e+00   2.10320750e-01
C     7.443719295300000e+00   1.469772055463712e-01   7.016653984000000e+00 -7.63540510e-01  -2.12705090e-01  -2.59363980e-01
C     1.270230202050000e+00   8.831175712226870e-01   7.009832360000001e+00 -5.55125160e-01  -1.50934572e+00  -4.16021610e-01
C     1.122731935425000e+00   4.688247853651362e-01   9.904393391999999e+00 -1.65899112e+00   2.89146980e-01   6.01470020e-01
C     2.337636038250000e+00   1.163920454544448e+00   1.002346275200000e+01 -6.57704690e-01   1.07947276e+00   7.09566100e-02
C     2.495915105625000e+00   1.606447243731330e-01   6.863036407999999e+00 -4.27237170e-01   1.38835150e+00   4.59339300e-01
C     3.745178855774999e+00   8.105586745630375e-01   6.828577816000000e+00  6.57875950e-01   1.04447174e+00   4.49522600e-01
C     3.519037463325000e+00   4.577490056517378e-01   1.011610676800000e+01  3.16789562e+00   3.31312760e-01  -1.03584678e+00
C     4.805062054275000e+00   1.210845796778818e+00   9.972879455999999e+00 -8.26885150e-01  -1.04971750e+00   9.04919480e-01
C     5.011487156550000e+00   1.526399784313404e-01   6.919627368000000e+00 -1.07378721e+00  -2.43153490e-01   1.62600600e-02
C     6.219742156050000e+00   8.836765348487077e-01   7.034247487999999e+00  1.12893870e-01   5.47182740e-01  -1.06181971e+00
C     6.061716885075001e+00   4.927509646449390e-01   9.904361024000000e+00 -9.39169150e-01   6.05478220e-01   3.10953270e-01
C     7.283327365500000e+00   1.255952842121578e+00   9.862650503999999e+00  6.73362140e-01  -2.76179749e+00   5.87743000e-03
C     8.642921187900001e+00   2.271941600528200e+00   7.079168016000001e+00 -9.97717470e-01   6.26253710e-01  -1.40409048e+00
C     2.478894921525000e+00   2.896521651518095e+00   6.946264736000000e+00  1.08761779e+00   3.08207308e+00   5.57817650e-01
C     2.350370893800000e+00   2.588722195570711e+00   1.000704564800000e+01 -5.90833960e-01   1.89911327e+00  -1.17643100e-02
C     3.571277739975000e+00   3.354978135535627e+00   9.940146567999999e+00 -2.37288670e-01  -2.14764952e+00   5.95886370e-01
C     3.739921121699999e+00   2.223172792668828e+00   6.877134712000000e+00 -1.20965800e+00   7.91774500e-02   1.47649800e-02
C     4.933839027974999e+00   2.960188044011398e+00   6.913568703999999e+00  3.38318170e-01   2.20731807e+00   1.93298000e-03
C     4.803441255150000e+00   2.647632658092022e+00   9.967060560000000e+00  3.70774770e-01  -1.63858756e+00  -6.72159970e-01
C     6.050808039900000e+00   3.308318698087604e+00   9.852239024000001e+00 -7.13892880e-01   1.32591055e+00   3.24106510e-01
C     6.182818884075000e+00   2.357998111053585e+00   6.953974304000000e+00  4.15680950e-01  -3.74583918e+00   1.92235120e-01
C     7.400222903624999e+00   3.031226633897662e+00   6.982613048000000e+00  5.67327950e-01   3.16762950e-01   7.25214600e-02
C     7.299288733500000e+00   2.658664632681658e+00   9.798712280000000e+00 -9.16632550e-01  -9.64964780e-01   1.64632695e+00
C     8.496844203300000e+00   3.352199776348223e+00   1.000056892000000e+01  1.59584651e+00  -7.41154280e-01  -7.69507440e-01
C     9.876620755499999e+00   4.362372572021865e+00   7.011264983999999e+00 -5.91385040e-01   3.63013800e-01  -1.02059426e+00
C     3.705225556500000e+00   5.096174102727709e+00   6.956013624000000e+00 -1.37457100e-02   6.29695830e-01   4.18583140e-01
C     3.591580268775000e+00   4.737506138938974e+00   9.863296503999999e+00 -2.35280123e+00   9.27480000e-01   7.90961840e-01
C     4.791608108924999e+00   5.428866396636282e+00   9.907050287999999e+00  7.35901800e-01   1.83742908e+00  -1.38436270e-01
C     4.933424464274999e+00   4.402391690665168e+00   6.966449991999999e+00 -1.66160600e-02   5.39328400e-01  -7.58970010e-01
C     6.148598558549999e+00   5.201375821912670e+00   6.912979551999999e+00 -2.95969360e-01  -4.13366513e+00  -2.08887670e-01
C     6.015772378649999e+00   4.733268761725905e+00   9.900616264000000e+00  1.28281690e-01  -5.79825820e-01   7.21343750e-01
C     7.213118828775000e+00   5.439206839462196e+00   1.005904647200000e+01  1.49787891e+00   8.96442280e-01  -3.61855670e-01
C     7.352133699299999e+00   4.446994848999504e+00   6.910482591999999e+00  2.69580196e+00   9.04961110e-01   2.47216220e-01
C     8.653686939825000e+00   5.149254833361639e+00   6.954461591999999e+00 -1.50674210e-01  -2.06060725e+00  -1.14531230e-01
C     8.476580054549999e+00   4.764536782216411e+00   1.001749126400000e+01  8.19200430e-01   1.84546160e-01   6.31652100e-02
C     9.733997975399999e+00   5.456993192689039e+00   9.932700432000001e+00  1.31731900e-01   6.89966940e-01   2.30617540e-01
