72
Lattice="7.395 0 0 3.6975 6.40425786098592 0 0 0 13.6 " PBC="1 1 1" Properties=species:S:1:pos:R:3:force:R:3 Energy="-570.86521213"
C     3.637467907650000e+00   6.156677960923091e+00   1.904386240000000e-01  2.82519624e+00   8.32981270e-01   8.23059710e-01
C     1.308729052725000e+00   4.077854194460047e-01   3.481451760000000e-01 -4.98297881e+00   3.72922787e+00  -1.24764733e+00
C     1.403580983250000e+00   1.037495152896603e+00   3.412991672000000e+00  2.47823033e+00   1.12658233e+00   4.19837070e-01
C     2.587867567575000e+00   1.824099597530410e+00   3.643516704000000e+00  3.55116997e+00  -3.25232158e+00  -6.85584500e-01
C     6.207386996775000e+00   6.177911085730185e+00   1.320222720000000e-01 -2.57185843e+00  -1.02019700e-01   4.51707630e-01
C     3.695036910375000e+00   4.783119248737830e-01   1.991582640000000e-01 -4.36319071e+00   1.94094185e+00   5.63153790e-01
C     3.937517148600000e+00   1.131553463405165e+00   3.515707440000000e+00 -4.01948375e+00  -3.97604748e+00  -1.26603547e+00
C     5.171024963850000e+00   1.733233489352165e+00   3.239951120000000e+00 -3.62969902e+00   1.28017034e+00   1.15790245e+00
C     8.490584853450001e+00   6.221473295991954e+00   1.359244302400000e+01  8.04759944e+00  -3.77423686e+00   1.22237042e+00
C     6.090617506425000e+00   3.881178154727874e-01   1.327142400000000e-01  8.57296910e-01   4.07417263e+00  -1.31685009e+00
C     6.305811451800000e+00   1.011584806446614e+00   3.108948848000000e+00  4.24391807e+00   7.66608650e-01   3.02340000e-02
C     7.573906014825000e+00   1.676478892154266e+00   3.312370032000000e+00 -1.20871611e+00   3.25664313e+00   4.11324380e-01
C     1.213016011425000e+00   1.891951428705538e+00   3.978980560000000e-01 -6.07738360e-01   5.84407960e-01   3.42353790e-01
C     2.395769353425000e+00   2.663979974577722e+00   5.950926160000000e-01  1.42654658e+00  -1.07064485e+00  -1.86405331e+00
C     2.679771370425000e+00   3.185222521803122e+00   3.677278160000000e+00 -1.81549141e+00   3.39631918e+00  -1.79766363e+00
C     3.800825158500000e+00   3.929737927610696e+00   3.320306992000000e+00  5.72054072e+00  -2.73463270e-01  -1.18070900e-01
C     3.613802354700000e+00   1.820976433099824e+00   4.922787920000000e-01  2.91823283e+00   5.09908967e+00  -2.29567154e+00
C     4.927579973925000e+00   2.539027011811891e+00   8.977101600000001e-02 -2.58771158e+00   2.78964788e+00   1.85009941e+00
C     5.101176230849999e+00   3.112947974192457e+00   3.241541232000000e+00  4.68456950e-01   4.52341458e+00   1.60067810e-01
C     6.374262788625000e+00   3.874636781707092e+00   3.254452936000000e+00 -1.47387291e+00  -2.01538078e+00   3.36450000e-01
C     6.171547831800000e+00   1.854116930503438e+00   4.622232000000000e-03 -1.42517002e+00   2.70619570e-01   1.28030388e+00
C     7.353700847699999e+00   2.639127035142999e+00   2.051666080000000e-01  1.32223744e+00  -1.15074430e-01  -1.89864150e+00
C     7.592613109349999e+00   3.175213499321464e+00   3.482239200000000e+00  1.19428404e+00  -1.82312030e-01  -1.03832489e+00
C     8.898333580275001e+00   3.967133093723600e+00   3.540936256000000e+00 -3.65813538e+00  -1.90280167e+00  -6.04324240e-01
C     2.456684778525000e+00   4.120294378744744e+00   3.867626480000000e-01 -1.24431762e+00  -2.79287524e+00   4.97951200e-01
C     3.692103129000000e+00   4.782333830553880e+00   3.345499360000000e-01 -1.84794712e+00  -1.51979200e-02  -1.00395693e+00
C     3.939370483500000e+00   5.427345577522269e+00   3.089548584000000e+00 -5.70826520e-01  -4.00975152e+00   1.23276071e+00
C     5.252831633700000e+00   6.071940023048500e+00   3.229678632000000e+00 -5.65087143e+00  -1.21788766e+00  -3.89163570e-01
C     4.864467235499999e+00   4.137819566336056e+00   1.242882240000000e-01  3.21445443e+00  -5.26485881e+00  -6.27733530e-01
C     6.092896349625000e+00   4.825384468697793e+00   1.352318584000000e+01  2.18884896e+00  -2.69345851e+00   4.39110820e-01
C     6.341263858274999e+00   5.265965772431965e+00   3.281247520000000e+00  3.54970898e+00   1.49705824e+00   6.12286550e-01
C     7.569062326799999e+00   6.012809766397434e+00   3.363160728000000e+00  1.60401959e+00   2.13556427e+00  -1.96226330e-01
C     7.394485566824999e+00   4.118980225031873e+00   1.352531954400000e+01 -1.40256002e+00  -3.51406437e+00   2.37866876e+00
C     8.621430171675000e+00   4.789317097367002e+00   1.771081760000000e-01 -1.85895627e+00   3.55552780e-01  -1.66276450e+00
C     8.858258818125000e+00   5.360126166810816e+00   3.226173096000000e+00 -1.46074964e+00  -1.88246572e+00   8.83564540e-01
C     1.006111332307500e+01   6.039647129172658e+00   2.994308736000000e+00  6.43091590e-01   3.31520050e-01   1.66780019e+00
C     7.418231355525000e+00   1.741168492925862e-01   6.453553872000000e+00 -4.07610776e+00   2.65161434e+00   1.99399630e-01
C     1.187240184300000e+00   8.966078842344624e-01   6.580992536000000e+00 -2.70439950e-01   2.07904934e+00   1.50873350e-01
C     1.156328159925000e+00   3.807530470189446e-01   1.031349580800000e+01 -3.83268409e+00   2.03780010e-01  -1.12557231e+00
C     2.266015019550000e+00   1.070406121698514e+00   1.067726847200000e+01  4.16822215e+00   1.68484060e+00  -6.85876760e-01
C     2.392211397075000e+00   2.610531127201998e-01   6.449877656000000e+00  2.16823148e+00  -1.65671080e+00  -3.69219000e-03
C     3.662459568975000e+00   9.016826822053051e-01   6.422874719999999e+00  9.09209180e-01  -1.83610850e-01   5.48454010e-01
C     3.560540606700000e+00   3.536169896571312e-01   1.060760070400000e+01  5.65417100e-01   1.63354880e-01  -9.61247920e-01
C     4.831643085975000e+00   1.151564399642257e+00   1.046441215200000e+01 -1.28091683e+00  -3.54485149e+00  -7.61556160e-01
C     4.941188474774999e+00   2.202900114412998e-01   6.338361872000000e+00 -2.01803450e+00   1.29457120e-01   5.62302500e-01
C     6.139851160950000e+00   9.646112401505581e-01   6.411179399999999e+00  1.45456593e+00  -9.80203370e-01   6.66900620e-01
C     6.070558938675000e+00   3.974600906686410e-01   1.015022617600000e+01 -2.53798569e+00  -8.47164480e-01   7.36143790e-01
C     7.271736257625000e+00   1.111652424232951e+00   1.006144850400000e+01  2.69291909e+00  -2.50617200e-02   1.72010820e+00
C     8.543926282574999e+00   2.326879950197002e+00   6.736129775999999e+00  2.24731690e+00  -3.92866470e-01  -3.61394410e-01
C     2.446608906150000e+00   2.973930876910594e+00   6.763027856000000e+00 -8.15107850e-01   2.56482310e+00  -1.73558053e+00
C     2.321682767775000e+00   2.525400928533483e+00   1.071222645600000e+01 -1.21341020e-01   5.81229600e-01  -1.20853648e+00
C     3.609279572700000e+00   3.207611743239104e+00   1.063035704000000e+01 -3.85698561e+00   2.48516559e+00  -8.69514430e-01
C     3.705113152500000e+00   2.287729248919514e+00   6.572983224000000e+00 -4.41768729e+00  -4.02964920e-01   5.97604110e-01
C     4.828213284975000e+00   3.004400478573694e+00   6.495186736000000e+00  5.16999546e+00   3.43963236e+00  -1.15906740e-01
C     4.759726821899999e+00   2.554914758753557e+00   1.042268898400000e+01  4.26415603e+00  -1.94038128e+00  -5.58913230e-01
C     5.997021727575000e+00   3.251445878289609e+00   1.014043512800000e+01  1.49232316e+00  -1.43707183e+00   1.11108859e+00
C     6.124433695200000e+00   2.405772914050506e+00   6.544166047999999e+00 -6.36130520e-01  -3.26748644e+00  -5.97954600e-01
C     7.357935927225000e+00   3.051582439420515e+00   6.643430544000000e+00 -1.00553298e+00   3.10319565e+00  -6.75971610e-01
C     7.341530415525000e+00   2.549380519323838e+00   1.017425764800000e+01 -4.19834475e+00  -6.48555600e-01  -1.81320390e-01
C     8.494763620050000e+00   3.301621381387930e+00   1.041203066400000e+01  1.46109137e+00  -5.24446779e+00   7.09207390e-01
C     9.827522318549999e+00   4.442654683447781e+00   6.527542631999999e+00 -1.94541087e+00   9.05836000e-02   9.28214880e-01
C     3.619577258100000e+00   5.217472027447680e+00   6.474526296000000e+00  2.57438690e+00  -4.09720960e+00  -5.27588540e-01
C     3.614768807250000e+00   4.631785482739615e+00   1.032419452000000e+01 -2.15836164e+00   6.76378740e-01  -1.66830950e-01
C     4.862599961024999e+00   5.383805525992694e+00   1.019042587200000e+01 -3.48940943e+00  -4.66811210e-01   1.00273278e+00
C     4.924728905625000e+00   4.428774159004596e+00   6.406980808000000e+00 -3.45617291e+00   2.43064437e+00   8.65417300e-01
C     6.093903141900000e+00   5.250063295697220e+00   6.368546120000000e+00 -1.37287840e-01  -2.38898976e+00   4.97412220e-01
C     6.007318525574999e+00   4.645647691005321e+00   1.024638266400000e+01  1.14754857e+00  -1.24859312e+00  -2.38597870e-01
C     7.233569627325000e+00   5.266164560595939e+00   1.037248988800000e+01 -1.07092241e+00   6.05395366e+00   7.19062620e-01
C     7.315641740699999e+00   4.541090944629439e+00   6.459110152000000e+00  6.84928840e-01  -1.97007989e+00   6.37929290e-01
C     8.527733044349999e+00   5.211293199464352e+00   6.429003696000001e+00  3.72058932e+00  -1.12717647e+00   2.57724480e-01
C     8.411634650249999e+00   4.640386272960439e+00   1.041165843200000e+01  4.96833447e+00   1.69555807e+00  -9.65973470e-01
C     9.694363955249999e+00   5.314643703872303e+00   1.022560322400000e+01  1.80044843e+00   1.97300401e+00   1.10081439e+00
