72
Lattice="7.395 0 0 3.6975 6.40425786098592 0 0 0 13.6 " PBC="1 1 1" Properties=species:S:1:pos:R:3:force:R:3 Energy="-579.40624212"
C     3.716816849250000e+00   6.266208189910469e+00   1.353943308000000e+01 -1.57858364e+00  -9.76875330e-01  -6.02086980e-01
C     1.256887403550000e+00   5.191469459684508e-01   1.356753503200000e+01 -6.75643360e-01   1.73242594e+00  -5.65583700e-02
C     1.341971241600000e+00   9.937504853284008e-01   3.606159952000000e+00  9.90920390e-01  -1.76423933e+00  -4.21047110e-01
C     2.592420484200000e+00   1.656655984927944e+00   3.697073368000000e+00 -7.49946660e-01   2.01109403e+00  -1.16139806e+00
C     6.190947948749999e+00   6.255616828261601e+00   1.350723195200000e+01 -1.64733685e+00  -1.63580300e-01   7.20899600e-02
C     3.692418747600000e+00   5.624634248561329e-01   1.349803073600000e+01  1.38717000e-01  -2.15159130e-01  -2.66188520e-01
C     3.803673305775000e+00   9.588018738031734e-01   3.591552192000000e+00  1.58514040e-01   2.78142770e-01   4.70756280e-01
C     5.030867713725000e+00   1.628476930131051e+00   3.602027728000000e+00  1.11135408e+00   1.08377062e+00  -1.02886973e+00
C     8.580138747149999e+00   6.206957789381950e+00   1.349307149600000e+01  7.38583550e-01   2.68297155e+00  -4.66857530e-01
C     6.110186377274999e+00   4.746456153340903e-01   1.351805442400000e+01  2.03849404e+00   2.69033787e+00   3.90593470e-01
C     6.313297484250000e+00   9.142997746578697e-01   3.490690512000000e+00 -1.90447129e+00   1.45707762e+00   6.03931360e-01
C     7.506035814075000e+00   1.668076121586475e+00   3.539728440000000e+00  9.97415520e-01  -1.12100935e+00   1.28646260e-01
C     1.235852067225000e+00   1.929222928599166e+00   1.305409600000000e-02 -7.04211100e-01   3.02517833e+00  -6.40428200e-01
C     2.465279728200000e+00   2.687714858675247e+00   1.693145600000000e-02 -7.60317040e-01   5.26891130e-01  -1.04204470e+00
C     2.598668297850000e+00   3.100593136099259e+00   3.603471912000000e+00 -8.32911750e-01   9.81577110e-01   4.92199190e-01
C     3.815739616350000e+00   3.865187875617869e+00   3.632839616000000e+00  9.39007100e-02  -2.85551892e+00  -1.34209349e+00
C     3.705669885074999e+00   1.972828495686649e+00   1.347713420000000e+01 -2.19949792e+00  -4.20280000e-03   1.67006080e+00
C     4.887335866275000e+00   2.648455925439925e+00   2.907829600000000e-02  2.20583707e+00   1.74870681e+00  -1.08960124e+00
C     5.004587473650000e+00   3.077041221648794e+00   3.547070536000000e+00  1.93418024e+00  -7.65471270e-01   1.30779550e+00
C     6.294127203900000e+00   3.689687002159158e+00   3.610022624000000e+00 -5.74274600e-01   4.38343941e+00  -6.89664260e-01
C     6.108572418525000e+00   1.908700996627425e+00   1.358010483200000e+01  1.53247264e+00   2.00317939e+00  -2.62834990e-01
C     7.371258870150000e+00   2.731753994019851e+00   1.351385447200000e+01 -1.57783540e-01  -2.62886721e+00   1.34063171e+00
C     7.553224418325000e+00   3.052571128748942e+00   3.591242655999999e+00 -1.92014333e+00   1.26860809e+00  -2.96881650e-01
C     8.727020085900000e+00   3.835286011414057e+00   3.547978336000000e+00  1.70104817e+00  -1.07606078e+00   9.47138740e-01
C     2.418709678725000e+00   4.149330259200727e+00   1.354360828000000e+01  1.02628567e+00  -9.70436930e-01  -7.46915450e-01
C     3.681432587700000e+00   4.871880213314915e+00   1.347605925600000e+01  2.17381250e-01  -2.73856564e+00   1.05984605e+00
C     3.847741367925000e+00   5.245428214071045e+00   3.468342856000000e+00  6.09645000e-02  -4.56901900e-02   8.00635250e-01
C     5.068080315075000e+00   5.963612449644650e+00   3.511910184000000e+00  7.58459130e-01  -4.30775950e-01   3.26303950e-01
C     4.918731116925000e+00   4.098703960391641e+00   1.357982834400000e+01 -7.48992820e-01   7.02804950e-01  -4.79086580e-01
C     6.139003250250000e+00   4.852910161107809e+00   1.350257912000000e+01 -3.28915630e-01  -1.04900081e+00   7.40155970e-01
C     6.313992910050000e+00   5.224857417611832e+00   3.578622808000000e+00 -1.20823941e+00  -1.37738115e+00  -2.13257660e-01
C     7.512213560099999e+00   5.982346633034772e+00   3.560409008000000e+00  2.93129270e-01  -2.53130397e+00   6.13804990e-01
C     7.364891442374999e+00   4.186176004031822e+00   1.355182988800000e+01 -2.32309990e-01  -3.48100735e+00  -1.21009590e+00
C     8.574825772425001e+00   4.860873151288354e+00   1.340702062400000e+01  1.11710997e+00  -2.82734150e+00   1.63640900e+00
C     8.746605854324999e+00   5.258821566618820e+00   3.621563040000000e+00  2.23251590e-01  -7.91811140e-01  -1.33970763e+00
C     1.001537007157500e+01   5.905985400398484e+00   3.497746735999999e+00 -1.19736337e+00   1.24316914e+00   3.03149210e-01
C     7.435040634225000e+00   1.434195762625626e-01   7.039799007999999e+00 -2.85845010e-01   2.10579640e-01  -4.27681190e-01
C     1.282705714950000e+00   8.654858808231636e-01   7.002088111999999e+00 -1.93423207e+00   2.26662220e-01  -1.65576340e-01
C     1.107017190675000e+00   4.617539723470675e-01   9.897169071999999e+00 -3.48879240e-01   9.69417260e-01   8.53683990e-01
C     2.348710975125000e+00   1.167255471825043e+00   1.001054574400000e+01 -1.28782822e+00   6.99892410e-01   1.15192400e-02
C     2.477126074500000e+00   1.727651025860760e-01   6.853223600000000e+00  1.24178534e+00  -4.96704240e-01   3.67003830e-01
C     3.752475576225000e+00   8.211116106647455e-01   6.814868880000000e+00 -8.32867320e-01   4.63274340e-01   3.97639210e-01
C     3.543899601225000e+00   4.742710943344375e-01   1.011783220000000e+01  1.05973796e+00  -2.66139780e-01  -9.93097950e-01
C     4.762389835350000e+00   1.194999549428085e+00   9.977438855999999e+00  2.17711451e+00   1.13871470e-01   6.58415600e-01
C     4.992766048500000e+00   1.723453675259316e-01   6.917942872000000e+00 -1.48590630e-01  -1.57001839e+00   1.89895040e-01
C     6.200182602900000e+00   9.051703769932824e-01   7.046193048000000e+00  4.86604670e-01  -1.43634322e+00  -1.07140106e+00
C     6.071933262450000e+00   4.644351149001564e-01   9.920020063999999e+00 -1.66895208e+00   1.83556974e+00   3.18253880e-01
C     7.280046019125000e+00   1.255192976926489e+00   9.875489719999999e+00  1.89518740e-01  -3.02434343e+00  -1.56740950e-01
C     8.641219450500000e+00   2.288077640547099e+00   7.063438664000000e+00 -2.31841300e-01  -6.93962590e-01  -1.47303209e+00
C     2.476624767450000e+00   2.931203717831189e+00   6.910319392000001e+00  7.39782220e-01   1.06272362e+00   8.35946510e-01
C     2.352487897425000e+00   2.587749196674042e+00   9.978492992000000e+00 -7.64256390e-01   1.22572179e+00   1.41413190e-01
C     3.557730432750000e+00   3.349586326800714e+00   9.914466775999999e+00  8.25413690e-01  -1.21584076e+00   6.09207340e-01
C     3.720706767149999e+00   2.208059256459857e+00   6.854815344000000e+00  2.87413540e-01   2.62982893e+00   2.39367000e-02
C     4.939923116325000e+00   2.997731724864077e+00   6.896854712000000e+00 -2.25173400e-01  -8.98272270e-01   1.92018200e-02
C     4.805638050824999e+00   2.658846193391989e+00   9.950291216000000e+00 -2.38298200e-01  -2.20411073e+00  -4.92256460e-01
C     6.074381007450000e+00   3.330604875014617e+00   9.873015199999999e+00 -2.16076104e+00  -9.96141360e-01   2.33656200e-02
C     6.183128956425000e+00   2.317268311915557e+00   6.950503312000000e+00  1.07935810e-01  -7.17212150e-01   1.55865210e-01
C     7.415418741224999e+00   2.999682205637918e+00   6.978658848000000e+00 -6.13043560e-01   1.64813894e+00  -3.69951300e-02
C     7.287059215275000e+00   2.661322207565822e+00   9.805101151999999e+00  1.20478990e-01  -1.65471842e+00   1.69504475e+00
C     8.493521555850000e+00   3.320142623204207e+00   9.995852032000000e+00  1.27100237e+00   1.25334200e+00  -7.80289320e-01
C     9.867487486799998e+00   4.350643045666118e+00   7.015574008000000e+00  5.79077870e-01   1.91726172e+00  -1.17669296e+00
C     3.736126784175000e+00   5.106780002041918e+00   6.969388408000000e+00 -2.22470425e+00   3.44040530e-01   3.62744310e-01
C     3.581405229450000e+00   4.759256727781156e+00   9.862062576000000e+00 -1.25868235e+00  -1.02034743e+00   7.64675030e-01
C     4.776695351924999e+00   5.434479984820888e+00   9.916966863999999e+00  1.92125931e+00   8.55594640e-01  -2.45820920e-01
C     4.937425381124999e+00   4.406449940785893e+00   6.955861032000000e+00  6.96980330e-01   7.68381940e-01  -6.52918690e-01
C     6.160829703674999e+00   5.182327829887408e+00   6.907328616000001e+00 -9.23439570e-01  -1.96245074e+00  -2.68631030e-01
C     6.023936865374999e+00   4.689883437066228e+00   9.909128775999999e+00 -2.39160180e-01   3.59380800e+00   1.00467631e+00
C     7.219047030525000e+00   5.453855938891160e+00   1.007384463200000e+01  1.01200626e+00  -3.08712460e-01  -5.13098870e-01
C     7.350467273025000e+00   4.457909689712880e+00   6.905855192000000e+00  3.24439104e+00  -9.59900770e-01   2.93579780e-01
C     8.650184556899999e+00   5.136130267516248e+00   6.957429248000000e+00 -2.00769180e-01  -7.17926720e-01  -1.49549770e-01
C     8.456452565399999e+00   4.768242413899364e+00   1.002612114400000e+01  2.23233246e+00  -7.31738240e-01   1.77335000e-03
C     9.770712153750001e+00   5.449516477807803e+00   9.943127007999999e+00 -2.58190425e+00   1.03453925e+00   3.34832030e-01
