72
Lattice="7.395 0 0 3.6975 6.40425786098592 0 0 0 13.6 " PBC="1 1 1" Properties=species:S:1:pos:R:3:force:R:3 Energy="-580.88357846"
C     1.104490467075000e+01   6.347314913578439e+00   1.348099945600000e+01  1.30420239e+00  -5.20645710e-01  -5.99666230e-01
C     1.182776414400000e+00   6.694916383827673e-01   1.346668518400000e+01  1.12655921e+00  -2.22112423e+00  -1.74107440e-01
C     1.276256794275000e+00   7.882275397458463e-01   3.603735480000000e+00 -4.26891180e-01   2.84725220e-01  -3.03080710e-01
C     2.512927598925000e+00   1.491157217352403e+00   3.625418504000000e+00  2.91755510e-01  -3.16672790e-01  -4.76666050e-01
C     6.136177583775000e+00   6.317737040779765e+00   1.341151773600000e+01 -9.38649000e-03   1.07265665e+00   2.91396050e-01
C     3.676762682175000e+00   6.222991105104775e-01   1.352103513600000e+01  3.08075600e-01   5.40928910e-01  -1.11677767e+00
C     3.759732770400000e+00   7.981504890018661e-01   3.542580360000000e+00  1.53612020e-01   5.84626380e-01   4.52921900e-02
C     5.000247311174999e+00   1.551856004838539e+00   3.520734680000000e+00 -6.08329430e-01  -9.55776860e-01  -7.03629000e-01
C     8.631417156149999e+00   6.343774127492803e+00   1.344983451200000e+01 -6.20600320e-01  -2.17813560e-01  -2.43027240e-01
C     6.168082017150000e+00   6.801643341064573e-01   1.337300090400000e+01 -1.43197311e+00  -4.93323470e-01   3.70427840e-01
C     6.213724955475000e+00   8.318005732033998e-01   3.490091568000000e+00 -2.18283100e-02  -7.92657040e-01  -1.96390200e-02
C     7.442149447725000e+00   1.518779806183840e+00   3.585504136000000e+00  4.58168300e-02   9.07479920e-01  -1.10207680e-01
C     1.213240967325000e+00   2.056145200656947e+00   1.346568993600000e+01 -2.21330190e-01   1.08569177e+00   1.59676000e-01
C     2.457510393300000e+00   2.772719469847127e+00   2.219656000000000e-02 -4.82257190e-01  -8.07354420e-01  -1.12941839e+00
C     2.522361733200000e+00   2.902721421424625e+00   3.592207712000000e+00 -4.92818700e-01   6.53008680e-01   1.33123190e-01
C     3.741011773274999e+00   3.620021677285814e+00   3.524094152000000e+00  8.13098800e-02   8.23133980e-01  -8.71307410e-01
C     3.673029501299999e+00   2.068126350304014e+00   1.348236476000000e+01  9.03329100e-01  -4.49350570e-01   8.34672210e-01
C     4.907280772875000e+00   2.801723136886074e+00   1.334297917600000e+01 -2.72594700e-02  -8.06009410e-01  -2.44485170e-01
C     5.016752285625000e+00   2.961024952428543e+00   3.413751776000000e+00 -1.82601111e+00  -2.73157400e-01   1.50211525e+00
C     6.203141194500000e+00   3.686139043304718e+00   3.517264776000000e+00  8.24535910e-01   5.59537820e-01  -5.76671000e-02
C     6.165269513775000e+00   2.105945990627879e+00   1.322894304000000e+01 -1.54007594e+00  -1.43900691e+00   9.90715550e-01
C     7.377348245925000e+00   2.763143119026490e+00   1.326804603200000e+01  1.52731346e+00   1.37724922e+00   9.35207230e-01
C     7.422223028625000e+00   2.973168193842046e+00   3.635611296000000e+00  7.97253850e-01  -1.10839141e+00  -6.84245590e-01
C     8.684409874049999e+00   3.645746876641069e+00   3.609482840000000e+00  8.58815700e-02  -5.48160170e-01   8.84231300e-02
C     2.475245156250000e+00   4.168416932943463e+00   1.438880000000000e-03 -1.25490807e+00   1.22963509e+00  -9.44078650e-01
C     3.682808575350000e+00   4.884810281849098e+00   1.349983858400000e+01 -1.19857400e-01   1.68189249e+00  -4.83473000e-03
C     3.697620686400000e+00   5.050293230907725e+00   3.460252216000000e+00  1.29929556e+00   4.51065350e-01   2.56613740e-01
C     4.956068471925000e+00   5.771606907084619e+00   3.520838176000000e+00 -1.07948510e+00   9.32374770e-01  -1.17369320e-01
C     4.901977966275000e+00   4.212405922949024e+00   1.331172107200000e+01  8.10514590e-01  -9.83323300e-02   3.77850530e-01
C     6.161128313775000e+00   4.922649263031700e+00   1.321710995200000e+01 -4.15755450e-01  -5.48746240e-01   1.36346912e+00
C     6.188881083225000e+00   5.135850081234874e+00   3.532511736000000e+00  6.85531820e-01  -2.53541421e+00  -2.58335410e-01
C     7.436597392650000e+00   5.781689706616825e+00   3.505264816000000e+00  9.18944980e-01   4.50702720e-01   6.79683030e-01
C     7.401918725025000e+00   4.196297036983452e+00   1.331607252800000e+01 -6.55577240e-01   3.52663980e-01  -5.56307990e-01
C     8.621840742074999e+00   4.903439563495473e+00   1.341840314400000e+01  8.46132640e-01   2.40356150e-01   1.00326305e+00
C     8.692926769500000e+00   5.047110058580991e+00   3.549539616000000e+00 -1.27614982e+00   1.31053647e+00  -8.01455450e-01
C     9.886093750499999e+00   5.799095326713890e+00   3.427772424000000e+00  5.10448290e-01  -5.08088820e-01   8.76174020e-01
C     3.239128320000000e-02   5.383111752738720e-02   6.600189343999999e+00 -7.08137760e-01   1.18455466e+00   9.83007130e-01
C     1.268534639475000e+00   7.381654560542262e-01   6.794722656000000e+00 -6.55433610e-01   1.77973671e+00   3.79877330e-01
C     1.178192364825000e+00   6.232774249411710e-01   1.017898337600000e+01 -4.94107060e-01   5.40422840e-01   5.97797460e-01
C     2.402486194950000e+00   1.361763862399340e+00   1.021216125600000e+01  7.76135470e-01  -1.46288097e+00  -2.08102950e-01
C     2.467463286825000e+00   4.422953393078220e-02   6.987611456000000e+00  1.58674935e+00   2.30433500e-02  -2.36900410e-01
C     3.713341901774999e+00   8.116958145886590e-01   7.114712976000000e+00 -8.88614790e-01  -1.21324702e+00  -1.34294970e+00
C     3.665319548250000e+00   6.427197911654520e-01   1.007846468800000e+01 -1.75157202e+00  -9.40978940e-01  -4.17707940e-01
C     4.855111784025000e+00   1.344467819154260e+00   1.006452088000000e+01  1.68866451e+00   6.00307400e-02   1.44196012e+00
C     4.891139003849999e+00   7.846945028122200e-02   6.809137023999999e+00  1.10689676e+00  -5.61939800e-01   7.60510310e-01
C     6.135872318175000e+00   7.573113691821678e-01   6.689118520000000e+00  1.23229249e+00  -2.73688400e-02   1.96750580e-01
C     6.105960023850000e+00   6.042326350448388e-01   1.012277607200000e+01 -9.50074600e-01   4.93607720e-01  -2.78077730e-01
C     7.311667334925000e+00   1.299362631046280e+00   1.024130673600000e+01  1.26068301e+00   1.24801187e+00  -5.92726190e-01
C     8.655079640175000e+00   2.212640414234851e+00   6.885908480000000e+00  1.42526004e+00  -1.80829411e+00  -3.14422790e-01
C     2.492648031600000e+00   2.962239776102007e+00   6.959711872000000e+00  9.88961600e-02  -1.55068797e+00   7.69930190e-01
C     2.410451830125000e+00   2.759219870661454e+00   1.031493428000000e+01 -5.45324630e-01   2.58400340e-01  -4.06177660e-01
C     3.651406854075000e+00   3.439456444796572e+00   1.033603114400000e+01 -7.77599830e-01   2.08752800e+00  -4.02815600e-01
C     3.730273863525000e+00   2.230024644110664e+00   7.156131912000000e+00 -7.39727250e-01   1.63216860e-01  -1.60402435e+00
C     4.957022574824999e+00   2.915499901175262e+00   6.988681232000000e+00  4.36125790e-01  -6.40778210e-01  -4.41468830e-01
C     4.859791635825000e+00   2.750874226073774e+00   1.029115658400000e+01  1.19184431e+00   4.11936750e-01  -7.67908130e-01
C     6.108778628100000e+00   3.506850179406974e+00   1.024847121600000e+01 -1.62573800e-01  -2.02461324e+00  -6.85902730e-01
C     6.178524940349999e+00   2.161132441246179e+00   6.809039512000000e+00 -9.47100000e-02   8.55301030e-01   5.96314460e-01
C     7.440276442125000e+00   2.856547810977861e+00   6.839738928000000e+00 -1.29814602e+00   1.63797297e+00   6.34172600e-02
C     7.332015269025000e+00   2.741187914145681e+00   1.022068029600000e+01 -6.81302530e-01   3.18873670e-01   2.56619690e-01
C     8.545239708524999e+00   3.461287407074897e+00   1.023690917600000e+01  8.72575600e-01  -9.83689200e-02  -7.38125120e-01
C     9.891994184024998e+00   4.358437347694631e+00   6.842289743999999e+00  3.35621390e-01   5.63396400e-01  -7.09678450e-01
C     3.751342958025000e+00   5.076955757443370e+00   6.701848800000000e+00 -5.12492210e-01  -2.12705232e+00   8.98414400e-01
C     3.642001597275000e+00   4.910154171691369e+00   1.026757540800000e+01  2.94186290e-01  -1.16440053e+00  -1.53665940e-01
C     4.871989725300000e+00   5.623342509750966e+00   1.022001865600000e+01  7.31430490e-01  -8.89110290e-01  -6.71207960e-01
C     4.970214145575000e+00   4.324262818816941e+00   6.853539800000000e+00  2.59186850e-01   7.93776910e-01   1.03949840e-01
C     6.230068349174999e+00   5.009406719579863e+00   6.921043127999999e+00 -1.38396959e+00   9.36178600e-01  -3.65867290e-01
C     6.124607403750000e+00   4.895251527693727e+00   1.009865796800000e+01 -3.45717220e-01   8.95390820e-01   5.71987420e-01
C     7.378812973575000e+00   5.589365424143101e+00   9.942648152000000e+00 -2.17946318e+00   1.30697868e+00   1.14402975e+00
C     7.452352255274999e+00   4.307765322484424e+00   6.904957864000000e+00 -8.07104010e-01  -1.04603756e+00  -2.31013350e-01
C     8.638138101899999e+00   5.032742490327552e+00   6.808976815999999e+00  4.88204990e-01   1.03065745e+00   2.41059130e-01
C     8.552634042975001e+00   4.868872581696123e+00   1.001286998400000e+01  1.92124291e+00   5.82616400e-02   9.72450850e-01
C     9.812508767699999e+00   5.604937953512898e+00   1.010994134400000e+01 -7.48999050e-01  -9.89982450e-01   1.01815660e-01
