72
Lattice="7.395 0 0 3.6975 6.40425786098592 0 0 0 13.6 " PBC="1 1 1" Properties=species:S:1:pos:R:3:force:R:3 Energy="-579.36725099"
C     3.650304740250000e+00   6.232208369187201e+00   1.352064236800000e+01  1.15450824e+00  -6.14169000e-03   4.06997740e-01
C     1.174265065200000e+00   5.659856385939757e-01   1.354019128000000e+01  1.15957618e+00  -7.91979410e-01   1.30278300e-02
C     1.374758637975000e+00   9.352495750972374e-01   3.500646664000000e+00 -6.89601990e-01   1.83404020e+00  -1.29062900e-02
C     2.589785830575000e+00   1.679418062256535e+00   3.479243256000000e+00  1.45908497e+00  -1.43823379e+00   3.75652350e-01
C     6.094248044700000e+00   6.228771588249210e+00   1.358606720800000e+01  2.23350540e+00   7.99063500e-02  -3.20744400e-01
C     3.683787747299999e+00   5.469573076403436e-01   1.352146122400000e+01 -5.46063600e-01  -2.92979670e-01   6.77580290e-01
C     3.859004988225000e+00   9.848500398823087e-01   3.557150040000000e+00 -9.79285740e-01  -1.36989033e+00  -1.96311830e-01
C     5.092498494149999e+00   1.729090703027688e+00   3.591607544000000e+00 -1.30893386e+00  -1.58032451e+00  -6.34544400e-02
C     8.645667616950000e+00   6.253848868836769e+00   1.356373696000000e+01 -5.63512710e-01  -1.02433656e+00  -1.21635670e-01
C     6.195344387175000e+00   6.085918212424050e-01   1.794152800000000e-02 -2.91073632e+00  -1.85922703e+00  -5.30289040e-01
C     6.267917992799999e+00   1.003018727303393e+00   3.584171200000000e+00  2.61732205e+00  -1.81778737e+00  -1.73351590e-01
C     7.549243357050000e+00   1.696422583683828e+00   3.499408656000000e+00 -2.01800121e+00  -5.94455610e-01   2.67438760e-01
C     1.207421139300000e+00   2.010806961605442e+00   1.352685172000000e+01  5.81782800e-02  -3.10485653e+00   2.64729410e-01
C     2.441217433500000e+00   2.663509966093376e+00   1.343851237600000e+01  1.54558200e-01  -4.82156000e-02   3.80412710e-01
C     2.608963321050000e+00   3.093075690138034e+00   3.504819960000000e+00 -2.76657670e-01  -1.14995071e+00  -1.34007080e-01
C     3.831437278650000e+00   3.758201161682167e+00   3.582582040000000e+00  9.35154240e-01   2.47272712e+00   1.98618780e-01
C     3.658532565150000e+00   1.995846230989011e+00   1.352347538400000e+01  2.42115722e+00  -1.55853064e+00   5.30328900e-02
C     4.933525036275000e+00   2.732192237385211e+00   5.641307199999999e-02 -1.73253240e+00  -1.77051170e+00  -2.02970030e-01
C     5.101619154374999e+00   3.113198828972833e+00   3.617487664000000e+00 -8.75157920e-01   1.80518318e+00  -4.41320780e-01
C     6.309070871999999e+00   3.916162950310010e+00   3.570911607999999e+00 -1.34545737e+00  -5.57133100e+00  -1.60002960e-01
C     6.174811947825000e+00   2.031484837256075e+00   1.028811440000000e-01 -2.56697438e+00  -2.71121424e+00  -1.16397490e-01
C     7.377051410625000e+00   2.634933847309163e+00   1.055419840000000e-01  1.46420876e+00   3.17151092e+00  -6.74399330e-01
C     7.480685717100000e+00   3.129205182770066e+00   3.471976232000000e+00  3.38288349e+00  -9.75120100e-02   3.62825450e-01
C     8.797014907125000e+00   3.781616473312478e+00   3.480350296000000e+00 -2.50386700e+00   1.08803427e+00   1.47934280e-01
C     2.476374372750000e+00   4.049155946478443e+00   1.341646636800000e+01 -1.08503047e+00   1.35500306e+00   5.83442620e-01
C     3.672855681825000e+00   4.767290933309105e+00   1.348689532800000e+01 -5.75553810e-01   2.88670704e+00   2.50209800e-01
C     3.809874826725000e+00   5.217620414102297e+00   3.620902352000000e+00 -2.74018800e-01  -2.26605100e-02  -4.17636540e-01
C     5.047164888675000e+00   5.939113857797320e+00   3.575591368000000e+00 -1.09311429e+00   1.43653170e-01  -3.98000200e-02
C     4.881068492850000e+00   4.131546851932500e+00   6.933932799999999e-02  1.62496978e+00  -1.23049585e+00  -4.48936840e-01
C     6.137752496925000e+00   4.776690078314755e+00   9.071784799999999e-02  3.16428700e-02   2.08824950e+00  -2.21725000e-01
C     6.259245099825000e+00   5.253353867428268e+00   3.556123784000000e+00  1.67279921e+00   1.87947326e+00   5.91405200e-02
C     7.531587018074999e+00   5.876986792723247e+00   3.554544959999999e+00 -5.14212980e-01   4.30266967e+00  -1.36427570e-01
C     7.359962416049999e+00   4.039854658532893e+00   7.910875200000000e-02  1.60468413e+00   2.45501267e+00  -4.41768550e-01
C     8.651072104799999e+00   4.746817737739678e+00   1.352129503200000e+01 -1.95483767e+00   2.40971450e+00   3.75494580e-01
C     8.752827230850000e+00   5.209774878010903e+00   3.552817896000000e+00  4.33132340e-01  -7.94365940e-01  -6.09298100e-02
C     9.954560801700000e+00   5.944233229402869e+00   3.600498272000000e+00  1.36064183e+00   8.36739750e-01  -9.25212000e-02
C     7.387039652250000e+00   1.541871190451592e-01   7.106687752000000e+00  1.99838020e-01   1.94744880e-01  -8.78920920e-01
C     1.206560805000000e+00   8.577255854038872e-01   6.950602456000000e+00  2.50785639e+00  -2.89998640e-01  -5.12571860e-01
C     1.093793266800000e+00   4.892797928422404e-01   9.936699376000000e+00  2.83641700e-01  -1.29523186e+00   2.69082760e-01
C     2.319926640150000e+00   1.206696029813274e+00   9.946435207999999e+00  6.64942930e-01  -9.58654080e-01   9.42926900e-02
C     2.494747213275000e+00   1.161870067347990e-01   6.833803207999999e+00 -1.41888952e+00   1.52282967e+00   2.68288560e-01
C     3.683589857100000e+00   8.925103119704773e-01   6.780005552000000e+00  8.12029800e-01  -1.57906180e-01   4.21689800e-01
C     3.569125721025000e+00   4.878382584405330e-01   1.005723930400000e+01  8.63749170e-01   1.03037580e-01  -1.23708480e-01
C     4.852447550400001e+00   1.199303723050633e+00   1.002660598400000e+01 -4.50939631e+00  -4.57566450e-01  -4.29083990e-01
C     4.914183931425000e+00   1.222043193348978e-01   6.927232760000000e+00 -6.94076730e-01   1.34800603e+00  -2.20571420e-01
C     6.143265543375000e+00   7.995484744501254e-01   7.027946880000000e+00  1.64242170e-01   2.82125696e+00  -4.92036070e-01
C     5.993566339875000e+00   4.822668102726475e-01   1.002353265600000e+01  2.03507710e+00  -1.83368363e+00   1.02998590e-01
C     7.235041639049999e+00   1.108897376544157e+00   9.930144448000000e+00  1.01567011e+00   3.03729830e+00   4.87413480e-01
C     8.659864057275000e+00   2.280774929351919e+00   6.874685215999999e+00 -5.02970000e-01   9.77880500e-02   2.36369940e-01
C     2.482007329125000e+00   3.055590992500246e+00   6.801119823999999e+00 -2.15555350e-01  -2.99836050e-01   3.00134290e-01
C     2.325955820625000e+00   2.612720807006911e+00   9.856263128000000e+00  6.58100360e-01   1.77040250e-01   4.33316910e-01
C     3.577704290775000e+00   3.303306789928946e+00   9.835606768000000e+00 -1.08892426e+00   6.22622050e-01   4.45438250e-01
C     3.707390405775000e+00   2.379943453377290e+00   6.748286544000000e+00 -4.36565460e-01  -3.62225427e+00   3.45136710e-01
C     4.949191972350000e+00   2.994410156524987e+00   6.817170544000001e+00  9.47415840e-01   1.81287024e+00   2.32481470e-01
C     4.788695588175000e+00   2.570466410242731e+00   9.853850487999999e+00  1.36548592e+00   2.30669379e+00   1.08035989e+00
C     6.012304345500000e+00   3.295428720207624e+00   9.967533975999999e+00  1.33854697e+00   1.44778686e+00  -5.51871100e-02
C     6.172524267599999e+00   2.263110513194731e+00   6.933129720000000e+00 -4.01934450e-01  -5.66567950e-01  -1.71688650e-01
C     7.411697244449999e+00   2.980361904568448e+00   6.947200280000000e+00  6.08305920e-01  -1.33220065e+00  -4.85707770e-01
C     7.269428130225000e+00   2.546858010237941e+00   9.964577199999999e+00 -1.03776225e+00   1.66220001e+00  -1.15484260e-01
C     8.504808322499999e+00   3.315759677209980e+00   9.923337104000000e+00 -6.13124550e-01  -1.17083125e+00   6.01590360e-01
C     9.901806350699999e+00   4.484717336731632e+00   6.951580024000000e+00 -1.45409133e+00  -2.31558349e+00  -2.87607360e-01
C     3.695758958174999e+00   5.163019760950451e+00   7.046915752000000e+00  2.92066183e+00  -6.00395800e-01  -1.03636416e+00
C     3.557017702650000e+00   4.728821901238235e+00   9.911804031999999e+00  3.36450820e-01   1.01314097e+00   3.14894920e-01
C     4.816450317300000e+00   5.469610349184181e+00   9.948114264000001e+00 -1.17328793e+00   1.86349130e-01   3.28151320e-01
C     4.974764436975000e+00   4.456758076064495e+00   6.865647743999999e+00 -1.49969798e+00  -1.75110827e+00   4.98432730e-01
C     6.209567449500000e+00   5.090682067357286e+00   6.856509087999999e+00  1.17557132e+00   1.07113214e+00   2.07460060e-01
C     6.045105015899999e+00   4.825816307805293e+00   1.002894994400000e+01  3.75834630e-01  -4.33462478e+00  -2.55336630e-01
C     7.304764139400000e+00   5.463620318722566e+00   1.010452283200000e+01 -1.00674029e+00   5.66869800e-01  -1.97783090e-01
C     7.485111106950000e+00   4.365623373311601e+00   6.902243983999999e+00 -3.33400734e+00   1.26838126e+00  -1.99255760e-01
C     8.646867936374999e+00   5.116657929365182e+00   6.958937896000000e+00  4.14684550e-01   6.93851230e-01  -2.53096250e-01
C     8.534865669749999e+00   4.715712513483973e+00   1.006154560800000e+01 -2.46268114e+00   7.14726180e-01  -2.21477140e-01
C     9.678037644000000e+00   5.475521094933490e+00   1.002515948800000e+01  3.16490994e+00  -1.67398166e+00  -1.67793080e-01
