72
Lattice="7.395 0 0 3.6975 6.40425786098592 0 0 0 13.6 " PBC="1 1 1" Properties=species:S:1:pos:R:3:force:R:3 Energy="-580.46912692"
C     1.104095026845000e+01   6.388043559950052e+00   1.341366204800000e+01  1.00379222e+00  -6.34468220e-01   1.37407360e-01
C     1.240614188400000e+00   6.278214380205769e-01   1.337210398400000e+01 -1.42637512e+00   1.92627543e+00   2.63424900e-01
C     1.239608357475000e+00   7.548056392518642e-01   3.417301784000000e+00 -2.27374750e-01   3.89913900e-01   4.05457450e-01
C     2.489478238800000e+00   1.409382465547056e+00   3.395632224000000e+00  5.71628440e-01   1.65000913e+00   6.47617670e-01
C     6.209866244475000e+00   6.359612817819261e+00   1.341091280800000e+01 -3.72733371e+00  -2.74651870e-01   3.57557470e-01
C     3.685155785325000e+00   6.334979800599451e-01   1.340597070400000e+01  3.73229980e-01   2.52037200e+00  -2.28422920e-01
C     3.760699444800000e+00   7.873324166247541e-01   3.527624439999999e+00 -6.57394640e-01  -1.50736230e+00  -3.99829280e-01
C     5.009020628250000e+00   1.498804349535293e+00   3.575543904000000e+00 -2.08568423e+00  -8.29468900e-02  -3.14921360e-01
C     8.573369253225000e+00   6.368967773445678e+00   1.337397724800000e+01  2.80050824e+00   6.74560220e-01   6.77707090e-01
C     6.093685950749999e+00   6.989024240938740e-01   1.344781504800000e+01  1.96740483e+00  -5.83211260e-01  -9.18785400e-02
C     6.192144681599999e+00   7.596984282143256e-01   3.573169207999999e+00  2.05524800e-01   1.39509790e-01  -4.00528180e-01
C     7.394002747275000e+00   1.486652462373679e+00   3.460793088000000e+00  1.37480797e+00  -1.40673000e-02   1.27275800e-01
C     1.203364168350000e+00   2.081476153898342e+00   1.335049168000000e+01  1.09106146e+00   1.93699180e-01   5.10462940e-01
C     2.479134741375000e+00   2.776969399405601e+00   1.323116052000000e+01 -1.13928336e+00   6.69490740e-01   9.63119340e-01
C     2.479985794950000e+00   2.835861609792011e+00   3.463217832000000e+00  9.56570160e-01   5.32801070e-01  -1.40907190e-01
C     3.664204752000000e+00   3.585513678701355e+00   3.550757088000000e+00  2.59150438e+00   5.43879400e-01   7.37737000e-02
C     3.695254360350000e+00   2.061075774740783e+00   1.335103445600000e+01  3.06115300e-02   1.10109170e+00   2.06570270e-01
C     4.902280495725000e+00   2.817614021914092e+00   1.351202309600000e+01  7.16356610e-01  -1.20273470e-01  -9.49466700e-02
C     4.955745125549999e+00   2.911056434944258e+00   3.551876640000000e+00  2.14383330e-01   6.66966810e-01  -2.12907830e-01
C     6.199010754224999e+00   3.643988587645607e+00   3.500265048000000e+00 -2.47197510e-01  -8.47229520e-01   2.94561760e-01
C     6.152023293975000e+00   2.085637064272562e+00   1.358891572800000e+01 -1.44427780e-01   2.26383339e+00  -2.54854060e-01
C     7.407955818149999e+00   2.843069602013441e+00   3.368448000000000e-03 -5.79231240e-01  -6.44448290e-01  -9.65806870e-01
C     7.445069659274999e+00   2.912339528006509e+00   3.454023008000000e+00 -5.97000140e-01   2.85097450e-01   7.32111500e-02
C     8.723555491425000e+00   3.601445358851941e+00   3.463371376000000e+00 -3.53761172e+00  -1.61529350e-01  -1.48601960e-01
C     2.483633045925000e+00   4.221372908634281e+00   1.326117884800000e+01 -9.24507220e-01  -6.25095500e-02   8.75835210e-01
C     3.671978560875000e+00   4.953367926282977e+00   1.339495892000000e+01  9.96022370e-01   2.16229900e-02  -1.69527800e-01
C     3.678750643050000e+00   5.035193784066046e+00   3.614506136000000e+00  7.49966620e-01  -7.17077430e-01  -7.01246700e-01
C     4.926474902100000e+00   5.778045811979641e+00   3.556196952000000e+00 -7.01435500e-02  -2.24124249e+00  -1.69233080e-01
C     4.921010329874999e+00   4.255487109402929e+00   1.351321323200000e+01  4.46598500e-02  -3.20521690e-01   3.11959200e-02
C     6.181986761699999e+00   4.976798095791522e+00   1.357864813600000e+01 -1.04384419e+00  -9.61120230e-01  -4.05869100e-01
C     6.177977562450000e+00   5.056998232716831e+00   3.539394968000000e+00 -4.41118900e-02   5.00881990e-01  -2.62673010e-01
C     7.424812350900000e+00   5.748539218570949e+00   3.519969000000000e+00  1.12913310e-01   2.97688040e-01  -1.13671700e-01
C     7.408452947024999e+00   4.318443269699559e+00   1.359063504000000e+01  1.04903319e+00  -3.05629816e+00  -5.10039650e-01
C     8.658536322000000e+00   4.996589558111752e+00   1.338644137600000e+01 -1.05260285e+00  -2.77237334e+00   1.62129310e-01
C     8.656587887399999e+00   5.024472672152934e+00   3.497621616000000e+00 -3.53117210e-01  -3.82956220e-01   2.44561140e-01
C     9.852754465274998e+00   5.733110272662373e+00   3.557669288000000e+00  1.07684193e+00   9.84225120e-01   1.48804390e-01
C     7.420568804099999e+00   5.509288441096441e-02   7.105314152000000e+00 -1.14571383e+00  -1.23665445e+00  -1.06700217e+00
C     1.227283037025000e+00   7.279355507189766e-01   6.886985055999999e+00  1.49417315e+00   2.16864710e-01  -4.65958520e-01
C     1.173865661250000e+00   6.581388104743452e-01   1.017866404800000e+01  2.49704249e+00   5.78888000e-02   2.73732640e-01
C     2.433649538400000e+00   1.388713107559378e+00   1.022334603200000e+01 -3.02366060e-01  -8.05564550e-01  -1.61428390e-01
C     2.461876253400000e+00   1.846296306975120e-02   6.723239968000001e+00  1.02031090e-01   5.28527500e-01   3.92827340e-01
C     3.662356260825000e+00   7.814967928201434e-01   6.644463056000000e+00  7.51199610e-01  -5.68888410e-01   4.21320760e-01
C     3.664850446425000e+00   7.000314307120135e-01   1.039073197600000e+01  2.09224480e-01  -1.36128360e+00  -8.54466160e-01
C     4.902413272950000e+00   1.407511909911307e+00   1.028038157600000e+01 -1.42377470e-01  -1.23949658e+00  -5.70444700e-02
C     4.876871312700000e+00   5.880159013769040e-02   6.811687432000000e+00  1.17929856e+00  -9.56543650e-01   5.10414950e-01
C     6.141244859625000e+00   7.370252419848319e-01   6.993063016000000e+00 -5.55582900e-02  -5.40176410e-01  -4.39512220e-01
C     6.130680362624999e+00   6.236049386881314e-01   1.029948087200000e+01 -5.15583200e-02   1.35092575e+00  -4.33278620e-01
C     7.377616536524999e+00   1.338217007312585e+00   1.015921047200000e+01 -2.14952877e+00   1.64501965e+00   5.41127640e-01
C     1.283346528675000e+00   2.138163250218395e+00   6.775639544000000e+00 -1.15081786e+00   9.98910170e-01   6.62379960e-01
C     2.474010450075000e+00   2.922509233317874e+00   6.682364624000000e+00  3.06114280e-01  -1.81683120e-01   5.66255770e-01
C     2.440027578000000e+00   2.781028738250163e+00   1.010285615200000e+01 -6.28963620e-01   1.30010158e+00   2.08608550e-01
C     3.664233037875000e+00   3.512487143132768e+00   1.005132004000000e+01 -9.63849300e-02   4.52330720e-01   7.75776510e-01
C     3.702014203800000e+00   2.205433254566942e+00   6.603193584000000e+00 -2.49953850e-01  -5.52502850e-01   6.98913700e-01
C     4.948385214825000e+00   2.846330457988017e+00   6.705813336000000e+00  1.54903100e-01   2.14094665e+00   5.43699210e-01
C     4.875575006175000e+00   2.821730166525871e+00   1.010752122400000e+01  1.44285634e+00  -5.94614640e-01   5.10051540e-01
C     6.123201429374999e+00   3.539983055743735e+00   1.019078654400000e+01  2.27232620e-01  -1.24678615e+00   6.20316300e-02
C     6.152288404725001e+00   2.139017065876291e+00   6.891957488000000e+00  1.10608415e+00   1.15212290e-01  -2.70289660e-01
C     7.434124060949999e+00   2.824872031389408e+00   6.903748007999999e+00 -6.89285480e-01  -2.94022360e-01  -6.02749480e-01
C     7.356381941925000e+00   2.813205074632953e+00   1.019526706400000e+01 -6.65812430e-01  -1.71000820e+00  -3.09773220e-01
C     8.574922018350000e+00   3.494657625207949e+00   1.017460268000000e+01  8.30890140e-01  -1.27788350e-01   2.55915100e-01
C     9.878276939699999e+00   4.345656178155693e+00   6.894494568000001e+00  5.20787390e-01  -7.56583680e-01  -2.43704230e-01
C     3.773289802049999e+00   5.019453142927423e+00   7.018764976000000e+00 -1.80312829e+00   3.91428230e-01  -9.93922250e-01
C     3.728276030325000e+00   4.947411326047391e+00   1.016507506400000e+01 -2.86346134e+00  -8.68127330e-01  -3.14260200e-02
C     4.931276734424999e+00   5.650773034889182e+00   1.018885439200000e+01 -4.40843180e-01   1.81035560e-01   3.46386620e-01
C     4.985548676400000e+00   4.318865246249954e+00   6.795304872000000e+00 -6.90782920e-01  -1.28964161e+00   4.00363800e-01
C     6.212856893400000e+00   5.014890237287331e+00   6.762901240000001e+00  5.85554000e-02  -1.41913563e+00   4.23729050e-01
C     6.153101447999999e+00   4.937997899546712e+00   1.029640128800000e+01 -9.20738660e-01   4.55721700e-02  -4.86359240e-01
C     7.348804766099999e+00   5.624627075792525e+00   1.042978668800000e+01  1.50630544e+00   1.68041862e+00  -6.14675360e-01
C     7.436094902400000e+00   4.214961670133214e+00   6.828090120000000e+00 -7.91154090e-01   2.87031974e+00  -2.16521120e-01
C     8.611239122175000e+00   5.007140380808366e+00   6.871191103999999e+00  8.65541780e-01   5.50691960e-01  -9.68469800e-02
C     8.567307497774999e+00   4.890683818860240e+00   1.034381116000000e+01  1.19777656e+00   1.28390792e+00  -3.03395120e-01
C     9.830504869950000e+00   5.614127807371684e+00   1.031824125600000e+01  3.42558950e-01  -1.49005300e-02  -5.84744160e-01
