72
Lattice="7.395 0 0 3.6975 6.40425786098592 0 0 0 13.6 " PBC="1 1 1" Properties=species:S:1:pos:R:3:force:R:3 Energy="-560.6303607"
C     3.690222617475000e+00   6.387392823308899e+00   1.320062988000000e+01 -2.34115221e+00  -9.53059400e-02   1.10598102e+00
C     1.203720644325000e+00   6.207052188142806e-01   1.315032008000000e+01  6.10269210e-01   1.53709186e+00   1.35991534e+00
C     1.205039764425000e+00   8.473689398055884e-01   3.378562320000000e+00  2.44621763e+00  -3.98485324e+00   1.84710015e+00
C     2.555127684075000e+00   1.386040930967293e+00   3.372212752000000e+00 -3.03933133e+00   4.68472933e+00   7.89771470e-01
C     6.050652116325000e+00   6.311508387670286e+00   1.332383540800000e+01  5.40274888e+00   9.27211400e-02  -3.41755530e-01
C     3.754851072075000e+00   7.064086626038443e-01   1.308981245600000e+01 -2.35231657e+00  -4.02361819e+00   3.36149644e+00
C     3.745894432950000e+00   7.561981170383640e-01   3.607748296000000e+00  2.22945057e+00   4.90793728e+00  -4.54112650e-01
C     4.946491614149999e+00   1.551891164214191e+00   3.640667367999999e+00  2.05078128e+00  -1.38367030e+00   1.07368787e+00
C     8.681662150874999e+00   6.353955808766367e+00   1.318555550400000e+01 -4.60002193e+00  -1.89314296e+00   1.25119138e+00
C     6.102648838649999e+00   6.462941355622752e-01   1.333296019200000e+01  3.65382231e+00   3.39001328e+00   1.43664316e+00
C     6.287409881699999e+00   7.592980340129185e-01   3.673383528000000e+00 -3.79431666e+00   3.69620753e+00   1.54432490e-01
C     7.453141375725000e+00   1.575744527082126e+00   3.486752224000000e+00 -8.87593610e-01  -3.43652546e+00  -1.94843370e-01
C     1.331645418225000e+00   2.027921892438242e+00   1.317456017600000e+01 -4.95008031e+00   2.88255400e+00   5.19784690e-01
C     2.461325399850000e+00   2.723373254099098e+00   1.274256991200000e+01  1.08247867e+00   2.08433734e+00   4.66457511e+00
C     2.576094653625000e+00   2.855516981632716e+00   3.501659728000000e+00 -1.78798613e+00   9.52752520e-01  -7.19324610e-01
C     3.815345019150000e+00   3.651263760531988e+00   3.626983320000000e+00 -6.96661313e+00  -4.19132640e-01   8.49280840e-01
C     3.709471617600000e+00   2.062056394704306e+00   1.325732406400000e+01 -1.54350538e+00   1.27223619e+00  -4.04805258e+00
C     4.894159306724999e+00   2.785240882687263e+00   1.339233289600000e+01 -2.70757810e-01   9.84598590e-01   2.77344634e+00
C     4.947322553325000e+00   3.024196167704111e+00   3.844632552000000e+00  4.31433456e+00  -5.95712973e+00  -3.02475460e+00
C     6.200334311324999e+00   3.580813273645008e+00   3.591951080000000e+00  2.02885613e+00   5.46770117e+00   1.85793420e-01
C     6.003553250400000e+00   2.080385380699626e+00   1.945557520000000e-01  5.84799477e+00  -8.17757890e-01  -3.45697262e+00
C     7.409554025549999e+00   2.901554309472218e+00   7.968634399999999e-02  3.12752600e-01  -5.78361434e+00  -2.12616647e+00
C     7.474745202675000e+00   2.926924328686558e+00   3.382606552000000e+00 -5.97237951e+00   4.09416700e-01   1.24220652e+00
C     8.577981071025000e+00   3.621730845623491e+00   3.487593384000000e+00  8.12777036e+00   2.54803159e+00  -7.55952030e-01
C     9.791456201024999e+00   4.189950161273877e+00   1.290420033600000e+01  2.20217437e+00   2.89357270e-01   2.55754528e+00
C     3.691701654450000e+00   5.012913883311734e+00   1.318561874400000e+01 -1.69460100e-02  -5.09818242e+00   1.92084550e-01
C     3.673023178575000e+00   5.017183794154732e+00   3.804794072000000e+00  1.02001634e+00   1.42573289e+00  -6.06596480e-01
C     4.785340032975000e+00   5.798711263370025e+00   3.694776464000000e+00  7.41808476e+00   1.11302124e+00  -1.53743916e+00
C     4.935828578775000e+00   4.193045851438244e+00   1.357400523200000e+01 -2.01511607e+00   2.82736320e+00  -2.13089994e+00
C     6.154314412874999e+00   4.938317920311976e+00   1.019507680000000e-01 -2.85246000e-01   5.30660990e-01  -2.04817807e+00
C     6.260336269050000e+00   5.108548025509329e+00   3.595148984000000e+00 -3.78727149e+00  -1.73484666e+00   1.11077704e+00
C     7.488818294400000e+00   5.855003345065275e+00   3.723715496000000e+00 -1.36028136e+00  -7.05515868e+00  -2.59417838e+00
C     7.462533210599998e+00   4.265971455902957e+00   1.353374651200000e+01 -5.32676871e+00  -1.65104764e+00   2.17541569e+00
C     8.607602519999999e+00   4.873486273101046e+00   1.331868903200000e+01  4.77749703e+00   3.48274292e+00  -3.04200071e+00
C     8.659581642225000e+00   5.079052895722206e+00   3.495622551999999e+00  6.18744280e-01  -2.49089020e-01   3.19004313e+00
C     9.913433583149999e+00   5.772076403228335e+00   3.823759952000000e+00 -2.41610823e+00  -1.00069747e+00  -2.47280981e+00
C     7.358403882825000e+00   5.854894216511340e-02   7.510453256000000e+00  2.96979869e+00  -1.53411300e-01  -4.38524456e+00
C     1.316917758075000e+00   7.771114132079299e-01   6.968503591999999e+00 -2.48790001e+00  -1.39668769e+00   1.94591960e-01
C     1.262297622525000e+00   5.932394062152558e-01   1.019737819200000e+01 -3.80252865e+00   2.02086625e+00  -8.42384540e-01
C     2.451120262875000e+00   1.317601445090931e+00   1.028873687200000e+01 -1.57219830e+00   1.27793463e+00  -2.07226837e+00
C     2.481927167325000e+00   6.401869071818220e-02   6.618113736000000e+00 -6.81505640e-01  -2.34565470e+00   4.98608390e-01
C     3.677208046050000e+00   7.801855210233085e-01   6.376138320000000e+00  7.30288410e-01   1.43020550e-01   2.19408450e+00
C     3.616674720600000e+00   5.986998685944276e-01   1.048123861600000e+01  1.55402283e+00   5.37439802e+00   5.57538200e-01
C     4.834085210774999e+00   1.384786208767361e+00   1.057178360800000e+01  2.83437500e+00   1.40465750e-01  -5.30871967e+00
C     4.846304745749999e+00   8.550926669124841e-02   6.910689720000000e+00  1.99463770e+00   4.52321800e-02  -1.15733102e+00
C     6.124321734900000e+00   7.357481689249692e-01   7.160210144000000e+00 -7.77524950e-01   5.44461290e-01   2.96875120e-01
C     6.095876571600000e+00   6.219074901423385e-01   1.035262300800000e+01 -5.37846130e-01   3.65182300e-01   9.53115420e-01
C     7.248493772624999e+00   1.406511244620682e+00   1.004297304000000e+01  2.88062343e+00  -4.90680341e+00   2.03266911e+00
C     1.261346329725000e+00   2.170939345349775e+00   6.720064096000000e+00  1.85695724e+00  -4.00911230e-01   1.98932583e+00
C     2.501027454000000e+00   2.942263743070252e+00   6.645183719999999e+00 -7.69714030e-01  -3.50798600e-02  -1.43401425e+00
C     2.405469337950000e+00   2.760729034026163e+00   9.968217376000000e+00  8.47963070e-01  -1.05547790e+00   8.51129430e-01
C     3.582255358650000e+00   3.550738942777027e+00   9.882167728000001e+00  3.33212417e+00  -4.58489673e+00   6.25900120e-01
C     3.642543502875000e+00   2.202099518137919e+00   6.275174368000000e+00  3.60371809e+00   1.67944815e+00   3.62063903e+00
C     5.027513230799999e+00   2.968342265331643e+00   6.586603080000000e+00 -2.90004318e+00  -5.42170195e+00   9.48374110e-01
C     4.957626080774999e+00   2.785744641610531e+00   9.915768840000000e+00 -4.98027910e+00  -1.27645590e+00   3.23554382e+00
C     6.144185999025000e+00   3.487098103272584e+00   1.010105088800000e+01 -1.56483618e+00   2.07267021e+00   1.35159546e+00
C     6.158812273724999e+00   2.156968712998499e+00   7.047710264000000e+00  9.01748960e-01   7.83183340e-01  -2.25279031e+00
C     7.472301931650000e+00   2.792117838819910e+00   6.992520648000000e+00 -3.20805437e+00   3.47230628e+00  -7.09726320e-01
C     7.281797820674999e+00   2.759670474244484e+00   1.018778529600000e+01  3.75264248e+00   2.42841800e-01  -1.34950206e+00
C     8.583431999475000e+00   3.413711968625158e+00   1.006946162400000e+01 -1.85831661e+00   3.43138845e+00   2.65888569e+00
C     9.920240754599998e+00   4.381643496263234e+00   6.905073872000000e+00 -6.61145130e-01  -6.61699610e-01   1.35805605e+00
C     3.764000055150000e+00   5.031820149110556e+00   7.262406800000000e+00 -7.45069400e-01   3.58070300e-02  -2.74115565e+00
C     3.608783072400000e+00   4.876787796113033e+00   1.011862807200000e+01  3.83928587e+00   1.36115819e+00  -8.99014060e-01
C     4.916120016375000e+00   5.603478743359497e+00   1.014907874400000e+01 -6.31572200e-01  -8.55216010e-01   1.48888880e+00
C     5.001619305525000e+00   4.306687998227215e+00   6.822435784000001e+00 -1.92701433e+00   2.43656306e+00   8.73645600e-01
C     6.216337682924999e+00   4.947858471331176e+00   6.653054720000000e+00  3.50170550e-01   3.50586841e+00   2.01612750e+00
C     6.116180024775000e+00   4.889303445121095e+00   1.043893853600000e+01  5.89398460e-01   1.65880834e+00  -1.33444254e+00
C     7.311701499825000e+00   5.723806423013680e+00   1.077239720800000e+01  1.12803040e+00  -9.06782624e+00  -2.96683606e+00
C     7.416999311550000e+00   4.259145157449983e+00   6.833458448000000e+00  1.78004025e+00  -1.41873250e-01  -2.30394670e-01
C     8.631101389649999e+00   5.076536086425804e+00   6.950645023999999e+00 -3.85000710e-01  -1.99645136e+00  -5.85104710e-01
C     8.629795987274999e+00   4.872782124949339e+00   1.052662440000000e+01 -2.13289375e+00  -9.59070410e-01  -1.49921036e+00
C     9.870314632274999e+00   5.516837460048915e+00   1.042178512800000e+01 -3.68214178e+00   4.72462524e+00  -2.53948810e-01
