72
Lattice="7.395 0 0 3.6975 6.40425786098592 0 0 0 13.6 " PBC="1 1 1" Properties=species:S:1:pos:R:3:force:R:3 Energy="-580.9865454"
C     3.706462037475000e+00   6.327937870784330e+00   1.324072077600000e+01 -9.82017850e-01  -6.47830560e-01  -1.26739090e-01
C     1.194432820125000e+00   6.405604675427958e-01   1.320965783200000e+01  1.18238236e+00   5.65917800e-01   4.93048310e-01
C     1.307434890750000e+00   8.315321707564872e-01   3.601684328000000e+00 -3.39934980e-01   2.65256740e-01   1.07401680e-01
C     2.527770214350000e+00   1.546088778507874e+00   3.572943856000000e+00 -8.15487690e-01   1.81437729e+00  -1.63998680e-01
C     6.103067839350000e+00   6.355485721926541e+00   1.328184296000000e+01  2.65537978e+00  -1.41181300e+00  -2.63679640e-01
C     3.672722276025000e+00   6.663183926557158e-01   1.322872040800000e+01  4.07398500e-01  -5.80208770e-01   9.82309660e-01
C     3.711887896875000e+00   8.245107345665190e-01   3.596596704000000e+00  1.48503171e+00  -7.96486400e-02   4.06295970e-01
C     4.940629523699999e+00   1.527222347192942e+00   3.663361416000000e+00  1.79308898e+00   5.37955310e-01  -4.73421080e-01
C     8.639988626699999e+00   6.314917566256899e+00   1.331224984000000e+01 -1.53805714e+00   1.56967588e+00  -6.85911440e-01
C     6.188288780700001e+00   6.440075593359409e-01   1.327550944000000e+01 -1.73719120e+00  -1.82210230e+00   3.34274790e-01
C     6.227407332375000e+00   8.509997697567366e-01   3.676320448000000e+00 -8.11706210e-01  -1.89690615e+00   8.96916700e-02
C     7.466724105000000e+00   1.543330592732729e+00   3.614031768000000e+00 -8.68575840e-01  -1.70007282e+00   2.49244200e-02
C     1.229820039675000e+00   2.064468174171803e+00   1.320057942400000e+01 -2.41272760e-01  -1.43308590e-01   3.80255390e-01
C     2.460099308850000e+00   2.777460285770570e+00   1.317774488800000e+01 -1.01129792e+00   1.10661110e+00   3.34843310e-01
C     2.532615048600000e+00   3.038021359359386e+00   3.567214992000000e+00 -6.35039590e-01  -2.39088309e+00   4.06196700e-01
C     3.783499486949999e+00   3.717474564673069e+00   3.674559112000000e+00 -1.00170726e+00  -1.91574475e+00  -6.87042140e-01
C     3.689638264575000e+00   2.122106366826646e+00   1.323017166400000e+01 -6.40479870e-01  -2.98362198e+00  -5.74693000e-02
C     4.911139151100000e+00   2.765099811930456e+00   1.329432680800000e+01  1.20927437e+00   5.21778000e-02   3.18922540e-01
C     4.974919214324999e+00   2.954068007115225e+00   3.650083736000000e+00  1.20268010e-01  -3.71963000e-03   3.02385210e-01
C     6.225516911550000e+00   3.641772138042839e+00   3.664167896000000e+00 -1.03320959e+00  -1.90381760e-01  -3.23739600e-01
C     6.127270010475000e+00   2.024151833921217e+00   1.332849898400000e+01  1.79469613e+00   1.96074241e+00  -1.88215490e-01
C     7.400855767725000e+00   2.760535177140741e+00   1.329674325600000e+01 -1.54840780e+00  -1.09564390e-01   1.20455360e-01
C     7.407270819300000e+00   2.906486996961148e+00   3.592780136000000e+00  2.77294390e+00   3.03165400e+00  -1.17180400e-02
C     8.655972179700001e+00   3.688608397050377e+00   3.574917488000000e+00  3.08789420e-01  -1.36945740e-01   3.15286830e-01
C     9.808727778150001e+00   4.211113607755455e+00   1.318893211200000e+01  1.99730854e+00  -6.02464960e-01   1.59481880e-01
C     3.694274300999999e+00   4.901554342109224e+00   1.317968248000000e+01 -1.89715730e-01  -3.22698170e-01   1.07625774e+00
C     3.767680398750000e+00   5.094756712378134e+00   3.688557048000000e+00  4.83485190e-01   1.54938089e+00   2.00420560e-01
C     4.981509860175000e+00   5.830358287840687e+00   3.675935976000000e+00  1.98674639e+00  -1.63444533e+00  -3.61429860e-01
C     4.948118957849999e+00   4.164213818509945e+00   1.331580542400000e+01 -1.53389427e+00   1.31258610e+00  -5.48974140e-01
C     6.162593189324999e+00   4.877712763075753e+00   1.333878752000000e+01 -1.21305988e+00   2.05233244e+00   1.55278050e-01
C     6.256529618849999e+00   5.046380229355265e+00   3.658839144000000e+00 -1.27980524e+00   2.54192758e+00  -6.98200600e-02
C     7.477836830325000e+00   5.816797912247923e+00   3.639711424000000e+00 -2.12648532e+00  -4.60268900e-01  -8.67636600e-02
C     7.363078669050000e+00   4.182444947445165e+00   1.334566762400000e+01  1.33355364e+00  -1.19172350e-01  -4.03230830e-01
C     8.593126622625000e+00   4.906759146514625e+00   1.325009226400000e+01  3.70685500e-02   1.24172690e-01   6.18905150e-01
C     8.680820747775000e+00   5.129051833431326e+00   3.667257272000000e+00  1.02153866e+00  -1.65041614e+00  -2.34350920e-01
C     9.942817837500000e+00   5.781269074960579e+00   3.724857352000000e+00 -1.08396981e+00   2.33206766e+00  -6.63583490e-01
C     7.403737895024999e+00   6.891436159668060e-02   6.946182184000000e+00  2.00033151e+00  -8.26671280e-01  -4.08167040e-01
C     1.248222903900000e+00   8.254234053541476e-01   6.870719047999999e+00  6.14684320e-01  -2.62265730e+00   2.40425680e-01
C     1.148803932300000e+00   6.155862314642040e-01   1.023729473600000e+01  2.22388141e+00  -1.61780569e+00  -1.52055160e-01
C     2.447494198575000e+00   1.323579819803241e+00   1.018406936800000e+01 -3.60930154e+00  -4.94400510e-01  -1.34508490e-01
C     2.535718471275000e+00   6.844492949554261e-02   6.830800055999999e+00 -2.72956065e+00   8.88890780e-01   1.97119270e-01
C     3.768260166749999e+00   7.423042076962513e-01   6.796619991999999e+00 -7.07701720e-01   1.39666118e+00   4.21960930e-01
C     3.605103172500000e+00   5.915905019440416e-01   1.022464945600000e+01  1.60239750e+00  -2.53498890e-01   2.31340010e-01
C     4.849010465325000e+00   1.278646009635595e+00   1.024619444000000e+01  3.93491170e-01   8.91504300e-01  -3.73368450e-01
C     4.991563769400000e+00   7.173819101489042e-02   6.916557983999999e+00  3.30879490e-01  -5.43388450e-01  -2.17010870e-01
C     6.220655623424999e+00   7.829045767829287e-01   6.962267448000000e+00 -1.25604979e+00   8.22906350e-01  -4.66138120e-01
C     6.089761165424999e+00   5.940857929340334e-01   1.026132960800000e+01  8.80747070e-01   1.07875473e+00  -6.76550300e-02
C     7.358976551624999e+00   1.310209778754076e+00   1.025376732800000e+01 -2.26957912e+00   7.88529510e-01  -5.46799800e-01
C     8.640990279450000e+00   2.215079732011146e+00   6.883444296000000e+00 -1.00330284e+00   6.91549920e-01  -5.30518530e-01
C     2.475958699800000e+00   2.866005298772616e+00   6.819160360000000e+00  9.27185980e-01   1.59837357e+00   3.12590160e-01
C     2.399727120450000e+00   2.722978239474293e+00   1.012918112800000e+01 -3.85251470e-01   1.06061533e+00   4.90524580e-01
C     3.609687111150000e+00   3.455430777304506e+00   1.017447157600000e+01  1.16397951e+00  -1.20137756e+00  -2.59756960e-01
C     3.721210625474999e+00   2.177305049577458e+00   6.785391016000000e+00  8.15292520e-01  -5.58297500e-02   4.42608470e-01
C     4.972093732725000e+00   2.896552135785508e+00   6.857432119999999e+00 -1.80991761e+00   1.39532241e+00   1.45698300e-02
C     4.870918670475000e+00   2.699532571661726e+00   1.020737636800000e+01 -7.53481530e-01   1.26175460e+00   9.93585100e-02
C     6.117804743250000e+00   3.426650554822295e+00   1.024236454400000e+01 -1.73452226e+00   4.46533560e-01  -3.17400680e-01
C     6.186511614299999e+00   2.221391000047019e+00   6.888765296000000e+00  1.03849749e+00  -8.39809200e-02   1.18927130e-01
C     7.404447556199999e+00   2.993058217690741e+00   6.855230824000000e+00  5.07560910e-01  -3.38849442e+00   4.37202500e-01
C     7.326681884099999e+00   2.751811233041271e+00   1.019860708800000e+01  5.66285790e-01  -1.41387828e+00   4.11338030e-01
C     8.535738760425000e+00   3.448714439958989e+00   1.019564324000000e+01  1.82767509e+00   5.39179420e-01  -1.53377920e-01
C     9.875441326950000e+00   4.309598669382006e+00   6.888962496000000e+00  3.98929210e-01  -6.42546130e-01  -2.64924920e-01
C     3.712542132525000e+00   4.998612342956833e+00   6.888328599999999e+00 -1.39008049e+00   3.01599315e+00   5.01808940e-01
C     3.608295741900000e+00   4.867734609116980e+00   1.018692917600000e+01  1.71131800e-01   7.00138400e-02   3.09917360e-01
C     4.827517452450000e+00   5.548199302917071e+00   1.025176445600000e+01  1.52182107e+00   1.65592319e+00  -3.99508860e-01
C     4.921724169225000e+00   4.373339543394222e+00   6.907148144000000e+00  1.65629426e+00  -3.02451895e+00  -4.38926200e-01
C     6.134253219900000e+00   5.074591625654351e+00   6.881823175999999e+00  2.47524063e+00  -3.36022720e-01  -1.43216390e-01
C     6.097091754974999e+00   4.855061927706190e+00   1.026164907200000e+01 -1.26479055e+00  -8.84064200e-02  -6.47080000e-04
C     7.291066824600000e+00   5.590192149790248e+00   1.030157989600000e+01  1.75960943e+00  -1.01094286e+00  -5.34237220e-01
C     7.419727068224999e+00   4.357828430857301e+00   6.852786632000000e+00 -8.44291460e-01   1.93935898e+00   2.70955860e-01
C     8.681626211175001e+00   5.055812996714681e+00   6.897131880000000e+00 -1.05899038e+00  -2.50634750e-01  -2.78463400e-02
C     8.578539763275000e+00   4.881243174263656e+00   1.027856937600000e+01 -1.87588916e+00   2.11510200e-02  -4.95692010e-01
C     9.793047826875000e+00   5.613295317892462e+00   1.023625338400000e+01 -2.15879040e-01  -1.68195967e+00  -8.91747500e-02
