72
Lattice="7.395 0 0 3.6975 6.40425786098592 0 0 0 13.6 " PBC="1 1 1" Properties=species:S:1:pos:R:3:force:R:3 Energy="-570.15230596"
C     3.606818183924999e+00   6.214681004148217e+00   4.155081520000000e-01 -4.88687360e-01  -3.27313957e+00  -1.82347207e+00
C     1.081242287925000e+00   4.949991153241134e-01   4.218271200000000e-01  4.71313983e+00  -3.47250084e+00  -4.63158420e-01
C     1.501638202575000e+00   1.144536879407321e+00   3.417028968000000e+00 -1.74092934e+00  -1.40366620e+00  -5.96715690e-01
C     2.770167000000000e+00   1.761961709260553e+00   3.651161672000000e+00 -1.99130401e+00   2.20296154e+00  -1.51705334e+00
C     6.054113198175000e+00   6.093573542057001e+00   2.486902800000000e-01  1.57823048e+00   1.18157027e+00   2.76891610e-01
C     3.636733325325000e+00   4.118122887032155e-01   4.254663440000000e-01  1.26627727e+00   1.22887730e-01  -2.95964484e+00
C     3.970610919825000e+00   1.099599482855274e+00   3.427674912000000e+00  2.35277617e+00   1.72113931e+00  -2.17272650e-01
C     5.177648554425000e+00   1.913648157739118e+00   3.306662656000000e+00  2.33804267e+00  -1.80478727e+00  -1.91663616e+00
C     8.652805640700000e+00   6.130928745600860e+00   1.592844240000000e-01 -2.79366549e+00   1.29086161e+00   2.57391650e-01
C     6.157601194575000e+00   5.527980548512422e-01   1.238777760000000e-01 -2.40697743e+00  -3.25078979e+00   9.21602760e-01
C     6.479699256599999e+00   1.212654807496532e+00   3.039930480000000e+00 -3.45455009e+00  -2.44668568e+00   1.24469270e+00
C     7.668868500599999e+00   1.927899232542083e+00   3.301986160000000e+00  6.22525610e-01  -4.20835240e+00   2.80307150e-01
C     1.187809081650000e+00   1.854772470337987e+00   5.432299680000000e-01 -7.50719650e-01   1.37315778e+00  -2.14783922e+00
C     2.443592263800000e+00   2.517364673643019e+00   6.486792000000000e-01 -5.93278780e-01   2.17414354e+00  -1.21727105e+00
C     2.736850454400000e+00   3.254622582315905e+00   3.583027168000000e+00  8.89028280e-01  -1.80749303e+00  -4.76172710e-01
C     4.003064321025000e+00   3.937893429782513e+00   3.310618624000000e+00 -3.30977506e+00   9.35914760e-01  -8.47798740e-01
C     3.695672399700000e+00   1.907179409002468e+00   3.944447440000000e-01 -2.41011109e+00  -3.11496256e+00   1.84699588e+00
C     4.870876001325000e+00   2.620073279285662e+00   2.370970960000000e-01  1.80657478e+00  -1.92176417e+00  -1.70642736e+00
C     5.224283273175000e+00   3.336143597424838e+00   3.098938976000000e+00  9.05835210e-01  -2.19186501e+00   2.70901681e+00
C     6.489006307800000e+00   4.031715743388934e+00   3.209291144000000e+00 -1.53727565e+00   3.86068830e-01   1.08936237e+00
C     6.102502528575000e+00   1.930664527043452e+00   2.944250400000000e-02  1.57680283e+00  -3.67970180e-01   6.10114720e-01
C     7.398466406250000e+00   2.563966536812881e+00   8.918485599999999e-02 -5.19181660e-01   7.30363500e-01   2.23331755e+00
C     7.642461658125000e+00   3.255883644731117e+00   3.576902816000000e+00 -6.70927400e-01   2.73180506e+00  -2.23128907e+00
C     8.864963568824999e+00   3.914277088497977e+00   3.538194224000000e+00  2.67915346e+00   2.84109219e+00  -5.08041320e-01
C     2.369908298925000e+00   3.972503192024367e+00   6.247553040000000e-01  2.29174407e+00  -3.14205960e-01  -2.69618683e+00
C     3.633171227775000e+00   4.656748575409531e+00   5.226737040000000e-01  1.43805604e+00   2.57219315e+00  -2.35077586e+00
C     3.893489721975000e+00   5.302405487314736e+00   2.985202448000000e+00  8.61448200e-02   2.39171944e+00   1.60791710e+00
C     5.052439409400000e+00   6.097678863472997e+00   3.169322376000000e+00  5.11031625e+00   1.39290364e+00   9.61098740e-01
C     4.947932603849999e+00   3.962479439749631e+00   9.949637600000000e-02 -3.68822712e+00   3.41433073e+00   1.82789740e+00
C     6.167152132875000e+00   4.665130852352171e+00   1.349202579200000e+01 -1.23218147e+00   2.15824154e+00   2.76168749e+00
C     6.441978544800000e+00   5.480285478525858e+00   3.320799856000000e+00 -1.62585667e+00  -2.45809156e+00  -1.13197975e+00
C     7.729314158325000e+00   6.109896970660884e+00   3.309375856000000e+00 -3.64396792e+00   1.01757269e+00   8.28746390e-01
C     7.401046078049999e+00   3.977061038300751e+00   1.263255040000000e-01 -2.08050470e-01   9.66124660e-01  -2.28277168e+00
C     8.629184272874999e+00   4.696663881032924e+00   1.083399120000000e-01  1.39659960e-01   3.02546060e-01   3.15083541e+00
C     8.891807936474999e+00   5.389494428249733e+00   3.250377696000000e+00  3.08843710e-01  -2.60458149e+00   5.78625700e-02
C     1.005352339087500e+01   6.048410843713438e+00   2.918465344000000e+00  2.76010146e+00   2.74529757e+00   2.21812913e+00
C     7.248778369200000e+00   3.354158326486968e-01   6.326194768000000e+00  4.47186178e+00  -3.53315344e+00   3.82150170e-01
C     1.155490232475000e+00   9.954811079299087e-01   6.423824000000000e+00  3.86077050e-01  -1.36194943e+00  -3.10784300e-01
C     1.096670180625000e+00   2.954207940149466e-01   1.029693046400000e+01  7.76181210e-01   5.02322950e-01   1.63680497e+00
C     2.377176363750000e+00   1.035391226104435e+00   1.066293407200000e+01 -3.60230443e+00  -1.18221871e+00  -4.01027550e-01
C     2.413705334325000e+00   2.012402902664154e-01   6.311397968000000e+00 -1.79366331e+00   2.50733133e+00   1.02693835e+00
C     3.567600354375000e+00   1.013589403199373e+00   6.393142943999999e+00 -4.57562970e-01   1.10503114e+00  -3.83751540e-01
C     3.545135786400000e+00   2.868187869851304e-01   1.070282912800000e+01  1.73411803e+00   1.77586607e+00  -2.15134106e+00
C     4.801106505750000e+00   9.684561003993877e-01   1.042559095200000e+01 -1.96366953e+00   1.81212472e+00   1.82891720e+00
C     4.720463624024999e+00   2.930025462470106e-01   6.148854576000000e+00  4.03774441e+00  -1.44771011e+00   2.08417131e+00
C     6.027775720799999e+00   9.119369877630012e-01   6.302786992000000e+00 -2.32384682e+00   2.84471439e+00  -3.03225390e-01
C     5.940757239824999e+00   2.529245724739734e-01   1.023744229600000e+01  4.32558651e+00  -1.95671100e-01   3.79810990e-01
C     7.236313616025000e+00   9.855094222715742e-01   1.022842440800000e+01 -1.33539414e+00  -8.44064530e-01  -2.58781730e-01
C     8.624839710374999e+00   2.390792906617916e+00   6.541944352000000e+00 -2.99213034e+00   1.14768834e+00  -3.67882080e-01
C     2.384842501425000e+00   3.206132679886336e+00   6.462429232000000e+00  3.67293990e-01  -9.55137660e-01   1.55374114e+00
C     2.313095656800000e+00   2.443988401552698e+00   1.082782550400000e+01 -7.68820900e-01  -2.00931090e-01  -2.22736531e+00
C     3.528937186799999e+00   3.200702573689421e+00   1.065136332800000e+01  1.92545492e+00  -3.79170880e+00   4.64987610e-01
C     3.587078969250000e+00   2.498037391932483e+00   6.517615992000001e+00  2.31321133e+00  -2.10489129e+00  -1.20239945e+00
C     4.915875426750000e+00   3.132628770936865e+00   6.389951976000000e+00 -4.07770518e+00   2.87698210e-01   8.98009400e-02
C     4.831575828450000e+00   2.405064475046033e+00   1.054388878400000e+01 -2.32899764e+00   1.31021266e+00  -1.10693690e+00
C     6.023523189075000e+00   3.132688394577542e+00   1.030491910400000e+01 -1.88504302e+00   1.37921185e+00   1.97506090e-01
C     6.046715388075000e+00   2.339563326718418e+00   6.387174176000000e+00  2.01983635e+00   1.08768838e+00   7.32155690e-01
C     7.302145126200000e+00   3.082677352821066e+00   6.540376407999999e+00  1.44361355e+00  -4.15220453e+00  -7.06490770e-01
C     7.167915301349999e+00   2.393656826690329e+00   1.023351883200000e+01  4.08777448e+00  -8.76824810e-01   1.47361247e+00
C     8.420979378975000e+00   3.038168080906959e+00   1.054874194400000e+01  1.34397665e+00   3.38108348e+00  -1.16032031e+00
C     9.794999034600000e+00   4.626168564340924e+00   6.481761632000000e+00  1.19848796e+00  -6.53258810e-01  -1.45619339e+00
C     3.705978811200000e+00   5.258718394024696e+00   6.341964920000000e+00 -4.71024256e+00   2.98915820e+00   2.40755210e-01
C     3.574309837875000e+00   4.546459698036056e+00   1.043685216000000e+01 -8.29474120e-01   1.31443431e+00   1.42180800e-02
C     4.779318543300000e+00   5.247336362700432e+00   1.032779675200000e+01  1.86938166e+00   1.63595278e+00  -1.90993160e-01
C     4.872038162550000e+00   4.585955844982513e+00   6.265275608000000e+00  2.80938197e+00  -2.99607394e+00   9.33199190e-01
C     6.147789767399999e+00   5.199640268032611e+00   6.264193728000000e+00 -5.17408860e-01   2.85281000e-01   1.51997600e-01
C     6.043977574199999e+00   4.591435071837214e+00   1.031446059200000e+01 -7.10550730e-01  -4.65243800e-01   4.16140510e-01
C     7.246628309925001e+00   5.367156761089524e+00   1.039505011200000e+01  9.62914710e-01  -5.27588613e+00   8.95182000e-03
C     7.347039246825000e+00   4.409849320857981e+00   6.386890888000000e+00  1.42314240e-01   5.68437159e+00  -5.06363790e-01
C     8.564622003524999e+00   5.267127120552297e+00   6.278912736000001e+00 -2.14275096e+00  -7.55173330e-01   8.98533550e-01
C     8.518303125225000e+00   4.520827424462349e+00   1.037646000000000e+01 -2.09405444e+00   2.93279640e-01   1.07059305e+00
C     9.735556286775001e+00   5.246652836259035e+00   1.039496824000000e+01 -1.45267089e+00  -5.04441750e-01  -6.50428630e-01
