72
Lattice="7.395 0 0 3.6975 6.40425786098592 0 0 0 13.6 " PBC="1 1 1" Properties=species:S:1:pos:R:3:force:R:3 Energy="-565.43597207"
C     3.679488442199999e+00   6.345371861743715e+00   1.334106184800000e+01 -7.01836700e-01  -3.30432777e+00  -4.22686500e-02
C     1.103030509200000e+00   6.773750236381129e-01   1.340077768000000e+01  5.55666663e+00  -3.42309172e+00  -8.15689600e-01
C     1.335595457475000e+00   8.795193389440459e-01   3.891080904000000e+00 -3.24157050e-01   9.27479040e-01  -1.03324647e+00
C     2.579980800075000e+00   1.576762547911551e+00   3.937370000000000e+00  1.36387028e+00  -2.97164670e-01  -1.38863580e+00
C     6.044812654574999e+00   6.308229919986595e+00   1.323340288800000e+01  3.94785269e+00  -1.45261956e+00   7.13213980e-01
C     3.662434130175000e+00   5.494501650123487e-01   1.345900893600000e+01  5.98352250e-01   5.00144590e-01  -3.09025861e+00
C     3.826284701475000e+00   8.991579956717359e-01   3.714690944000000e+00 -7.28571560e-01  -3.14823150e-01   1.85688070e-01
C     5.017429889475000e+00   1.705886219566129e+00   3.643066000000000e+00  2.54768741e+00  -3.75204854e+00  -8.34267540e-01
C     8.711487479999999e+00   6.209662179391071e+00   1.329042061600000e+01 -3.01380348e+00   2.91576167e+00   3.51750000e-03
C     6.278959615200000e+00   7.152936097459153e-01   1.314837460000000e+01 -6.80174371e+00  -4.25863014e+00   6.97214820e-01
C     6.287288233949999e+00   1.014352086267921e+00   3.599513768000000e+00  3.78357230e-01  -3.53575582e+00   2.46643750e-01
C     7.566533273774999e+00   1.703735029350955e+00   3.833771456000000e+00 -4.43248828e+00  -3.81348766e+00  -8.74106640e-01
C     8.566668015150000e+00   2.049827592405793e+00   1.338717781600000e+01  2.41688954e+00  -8.31799930e-01   6.30571960e-01
C     2.472201189375000e+00   2.688968748321656e+00   1.070734800000000e-01 -3.10404491e+00   1.50321639e+00  -2.12768953e+00
C     2.650080001725000e+00   3.011804697255955e+00   3.838513912000000e+00 -3.76486309e+00  -9.10801000e-03   4.46167340e-01
C     3.843959454000000e+00   3.715891432130078e+00   3.668100880000000e+00 -3.43052680e-01  -2.25415780e-01  -1.28355561e+00
C     3.651391583400000e+00   2.118869847031938e+00   1.334081582400000e+01  2.45072212e+00  -5.80722313e+00   2.13109608e+00
C     4.891930083975000e+00   2.761824866588588e+00   1.313854846400000e+01  2.69326320e-01  -5.71032550e-01  -1.22434365e+00
C     5.118276983475000e+00   3.054879735622315e+00   3.499414639999999e+00 -2.71703135e+00   2.91065251e+00   2.06255728e+00
C     6.290877101400000e+00   3.838862277088239e+00   3.684074216000000e+00 -2.61589736e+00  -7.37528920e-01  -4.16674090e-01
C     6.140146923974999e+00   2.074694877378123e+00   1.286763619200000e+01  4.48405510e-01  -2.12294379e+00   1.88699874e+00
C     7.443450265199999e+00   2.638197136901727e+00   1.290853288800000e+01 -2.72090101e+00   4.77065829e+00   1.57807914e+00
C     7.367788137825000e+00   3.052990223383301e+00   3.944686800000000e+00  7.35145341e+00   2.91802043e+00  -9.33918210e-01
C     8.729301073649999e+00   3.752381996820257e+00   3.866823399999999e+00  8.47077890e-01  -9.13776700e-01   6.47369810e-01
C     2.408892853200000e+00   4.089912515414325e+00   8.285759199999999e-02  2.51217320e+00   6.94265990e-01  -1.80083066e+00
C     3.682543316699999e+00   4.789146167724719e+00   1.347421060800000e+01 -1.08783050e-01   3.28891089e+00  -1.17899375e+00
C     3.727644534300000e+00   5.096799798720630e+00   3.531120048000000e+00  2.31681102e+00   2.15315156e+00   4.77143540e-01
C     4.957375944900000e+00   5.868584598538662e+00   3.641336896000000e+00  5.04227190e-01   1.86472837e+00   2.75948280e-01
C     4.902953181899999e+00   4.155749823237013e+00   1.302404734400000e+01 -1.32265191e+00  -5.61115100e-01   2.01812122e+00
C     6.180487499400000e+00   4.748857493868088e+00   1.285939282400000e+01 -2.93891953e+00   5.89997105e+00   2.31993766e+00
C     6.233713566524999e+00   5.293575168492211e+00   3.687087568000000e+00  6.94344970e-01  -4.18823298e+00  -4.90362010e-01
C     7.512218144999999e+00   5.833309561990311e+00   3.639007488000000e+00  1.72797170e-01   4.50227611e+00   1.42533768e+00
C     7.354596308249999e+00   4.076427325808838e+00   1.299690079200000e+01  3.73567733e+00   5.12840910e-01   3.04735230e-01
C     8.628185836949999e+00   4.765458995348252e+00   1.330598744800000e+01 -1.16394294e+00   2.22523290e+00   5.49747930e-01
C     8.767736586150001e+00   5.166359901637335e+00   3.769945432000000e+00 -2.75693062e+00  -2.07857188e+00  -1.45751767e+00
C     9.934761835425000e+00   5.818945772249010e+00   3.512918488000000e+00  1.62445401e+00   4.61190091e+00   1.09649777e+00
C     7.427878576724999e+00   1.151490046208502e-01   6.443771256000000e+00 -1.40905313e+00   8.70137550e-01   2.34220684e+00
C     1.249332227850000e+00   8.025260060569753e-01   6.808749288000000e+00  1.76740763e+00   5.51349750e-01   1.44830582e+00
C     1.113798553575000e+00   5.464060931663335e-01   1.005775719200000e+01 -1.97297844e+00  -1.60952337e+00   1.11933935e+00
C     2.383111923525000e+00   1.290026119682500e+00   1.013184740800000e+01 -2.03702396e+00  -4.94658999e+00  -2.01687680e-01
C     2.506840367700000e+00   1.727177110779120e-02   7.175612960000000e+00 -8.33830250e-01   5.72389946e+00  -9.68989890e-01
C     3.740258296725000e+00   8.662503570839118e-01   7.397744616000001e+00 -1.32514585e+00  -1.86494330e-01  -2.59947498e+00
C     3.575015986425000e+00   5.676479918066959e-01   9.920945000000000e+00  1.20872032e+00  -3.06399961e+00  -1.69881977e+00
C     4.799444923199999e+00   1.217062730096413e+00   9.856203696000000e+00 -1.65841560e-01   1.41173672e+00   3.40045215e+00
C     4.871941398974999e+00   1.470908811233862e-01   6.844930727999999e+00 -7.30805750e-01  -7.51070330e-01   1.70694167e+00
C     6.055665334724999e+00   7.597237250328727e-01   6.600384911999999e+00  5.62049994e+00   4.59846153e+00   3.59030710e-01
C     6.020526476250000e+00   4.857016058907013e-01   9.950604696000001e+00 -3.83514620e-01   3.26046470e+00  -3.45824030e-01
C     7.193007719550000e+00   1.194651926311444e+00   1.016733035200000e+01  4.38727643e+00   5.20108920e-01  -7.94762280e-01
C     8.699429784599999e+00   2.310812627864941e+00   6.991639232000000e+00 -9.42301480e-01  -3.74857111e+00  -1.01581228e+00
C     2.470494349425000e+00   3.065580481995432e+00   7.128034040000000e+00  3.01293780e+00  -1.54308432e+00   1.51149054e+00
C     2.363941384350000e+00   2.597890403037930e+00   1.037121284800000e+01 -1.64635657e+00   5.08002055e+00  -8.33500850e-01
C     3.582389023275000e+00   3.334532798487891e+00   1.035745332000000e+01 -1.05214154e+00   6.39992540e-01  -1.45537350e-01
C     3.773997466575000e+00   2.390308744723700e+00   7.492841936000000e+00 -4.14997655e+00  -4.44565969e+00  -2.93568059e+00
C     4.956533543475000e+00   2.946496765387976e+00   7.194435768000000e+00  3.17899665e+00   3.42889916e+00  -2.17147271e+00
C     4.772747679075000e+00   2.581731243648157e+00   1.030613807200000e+01  3.00846269e+00   2.61628190e+00  -2.07123484e+00
C     6.098264897775000e+00   3.397873982767064e+00   1.018112592000000e+01 -2.85168053e+00  -5.15375550e-01  -1.15793064e+00
C     6.206275676175000e+00   2.235556257794660e+00   6.832594712000000e+00 -2.91227367e+00  -2.17913540e+00   1.00522802e+00
C     7.433837245874999e+00   2.909181588455743e+00   6.896169543999999e+00  7.32577920e-01   1.28989282e+00   2.28791700e-01
C     7.274605184850000e+00   2.614987850246772e+00   1.016296937600000e+01 -2.24369438e+00   8.36380600e-01  -6.13454000e-03
C     8.423934199125000e+00   3.355900604837781e+00   1.021882403200000e+01  5.25144178e+00  -2.09630050e-01  -1.59383361e+00
C     9.941389419300000e+00   4.440307394856934e+00   6.901982728000000e+00 -2.65773338e+00   4.25355720e-01  -8.61428590e-01
C     3.730192333650000e+00   5.124246910886704e+00   6.661767832000000e+00  2.59799168e+00  -4.50934020e-01   1.07247515e+00
C     3.550801465650000e+00   4.806538723135750e+00   1.026009908000000e+01 -4.01529420e-01  -1.54449709e+00  -6.91153480e-01
C     4.750686878100000e+00   5.448168893868901e+00   1.013059335200000e+01  4.34053378e+00   4.10692466e+00  -1.36760202e+00
C     4.963605086175000e+00   4.432370021707829e+00   6.924965640000000e+00  3.93781360e-01  -1.85926525e+00   5.42449070e-01
C     6.247016801775001e+00   5.066732000195667e+00   7.070912136000000e+00 -9.06230380e-01  -1.80645929e+00  -1.33092102e+00
C     6.083598431250000e+00   4.844772782985737e+00   9.909522087999999e+00 -7.39561190e-01  -3.39017451e+00   1.51298110e+00
C     7.362422103974999e+00   5.461370695064084e+00   9.615922703999999e+00 -3.69289387e+00   2.54134165e+00   2.94746631e+00
C     7.478402584800000e+00   4.313341445760548e+00   7.027913288000001e+00 -4.15422800e-01   2.26930172e+00  -5.76663730e-01
C     8.677876465499999e+00   5.126013077119334e+00   6.861228832000000e+00 -1.64359812e+00  -1.98486978e+00   3.87319240e-01
C     8.542530402375000e+00   4.717270221123260e+00   9.730777015999999e+00  2.96571830e-01   1.18639086e+00   2.73477764e+00
C     9.760200124274999e+00   5.570414712794732e+00   9.946243856000001e+00 -8.74136880e-01  -7.03087977e+00   3.38028920e-01
