72
Lattice="7.395 0 0 3.6975 6.40425786098592 0 0 0 13.6 " PBC="1 1 1" Properties=species:S:1:pos:R:3:force:R:3 Energy="-571.7950591"
C     1.101094642402500e+01   6.390677310994977e+00   1.327004536800000e+01  1.44628002e+00  -1.26353385e+00   4.19564410e-01
C     1.253381877750000e+00   5.585344126590228e-01   1.320294664000000e+01 -2.35932470e+00   3.58539808e+00   5.97814680e-01
C     1.238913745125000e+00   7.896021496529166e-01   3.420024368000000e+00 -4.29558670e-01   4.01848710e-01   6.83143770e-01
C     2.519033095800000e+00   1.369944149049076e+00   3.383559504000000e+00  5.59669500e-02   4.59358157e+00   1.05192024e+00
C     6.244317072149999e+00   6.321437613099008e+00   1.328930228800000e+01 -6.47429265e+00  -4.50263010e-01   4.53031510e-01
C     3.680905102350000e+00   5.805818388530161e-01   1.326826621600000e+01  1.14919682e+00   4.54452231e+00  -1.33527790e-01
C     3.791359077825000e+00   8.334704193978163e-01   3.619058056000000e+00 -4.41198000e-02  -1.89502614e+00  -6.26497410e-01
C     5.057349689400001e+00   1.549129904395273e+00   3.686321207999999e+00 -2.88788615e+00  -8.66294300e-02  -2.76379140e-01
C     8.549844611999999e+00   6.332080208810757e+00   1.321484310400000e+01  3.81190855e+00   2.60193439e+00   1.20404707e+00
C     6.036459558374999e+00   6.923951217249067e-01   1.335309091200000e+01  3.74037134e+00  -1.43002874e+00  -3.91597230e-01
C     6.233063287199999e+00   7.822930341998773e-01   3.691967520000000e+00 -1.47667473e+00   7.80925150e-01  -4.97100610e-01
C     7.383072863325000e+00   1.523656520459073e+00   3.500207928000000e+00  3.32901617e+00   7.90636210e-01  -1.40455080e-01
C     1.207705587975000e+00   2.035782350450448e+00   1.317303153600000e+01  3.85561160e-01   1.20678507e+00   9.89828550e-01
C     2.494822309500000e+00   2.725273397406160e+00   1.293568379200000e+01 -1.69096685e+00   1.12490319e+00   2.24111801e+00
C     2.486388866625000e+00   2.834631287814526e+00   3.503480088000000e+00  2.71705077e+00  -2.46585430e-01  -3.46030490e-01
C     3.652981693275000e+00   3.606701973703429e+00   3.650860976000000e+00  3.35980238e+00   8.07333490e-01   4.60899350e-01
C     3.702589904550000e+00   2.019900623511171e+00   1.318979788800000e+01 -4.98552450e-01   1.27538193e+00  -1.23184800e-01
C     4.870135946700000e+00   2.796816386641477e+00   1.344701060800000e+01  1.53629274e+00  -3.67846360e-01   3.83840470e-01
C     4.974220164975000e+00   2.969140171818421e+00   3.682407400000000e+00  1.59034460e-01  -3.10433960e-01  -8.59534560e-01
C     6.215509664774999e+00   3.685199218463763e+00   3.573410880000000e+00  6.38772840e-01  -2.03233650e-01   3.57591460e-01
C     6.115007510550000e+00   2.024848681218963e+00   1.635495200000000e-02  6.60382980e-01   5.13725721e+00  -6.07548450e-01
C     7.426836029624999e+00   2.868150533027980e+00   1.901905600000000e-02 -4.37615140e-01  -2.86174207e+00  -1.97077525e+00
C     7.488865326600000e+00   2.960921139408633e+00   3.463867504000000e+00 -1.90660350e+00  -2.30045100e-01   5.48663630e-01
C     8.788478488875000e+00   3.629881416516755e+00   3.501605192000000e+00 -6.04679667e+00   1.15824220e-01  -4.80987290e-01
C     2.485164513450000e+00   4.180415053873859e+00   1.300458724000000e+01 -8.14717670e-01   8.88153700e-01   1.79423714e+00
C     3.647400317025000e+00   4.958710358189789e+00   1.324318550400000e+01  1.72380285e+00  -1.51605648e+00  -1.41918460e-01
C     3.659080275825000e+00   5.070657938349004e+00   3.783077456000000e+00  1.43574572e+00  -9.81949560e-01  -1.30720191e+00
C     4.895346573975000e+00   5.858741062080107e+00   3.669471488000000e+00  1.36308225e+00  -4.99569441e+00  -7.76345600e-02
C     4.918028776800000e+00   4.234531801301802e+00   1.346671510400000e+01 -5.11687510e-01   5.78554620e-01  -2.66755630e-01
C     6.200602971675000e+00   4.981635039625445e+00   1.358228831200000e+01 -2.19849811e+00  -1.90183308e+00  -6.68695090e-01
C     6.205929775050000e+00   5.098397661056700e+00   3.635226688000000e+00 -1.22646467e+00   1.51223132e+00  -2.09807980e-01
C     7.452278748975000e+00   5.805563691195069e+00   3.624410064000000e+00 -1.74390240e-01  -1.21942245e+00  -5.77172070e-01
C     7.423632404699999e+00   4.364022949272387e+00   1.358137752000000e+01  1.89526523e+00  -5.08484422e+00  -5.42025700e-01
C     8.673572427600000e+00   5.011916228022304e+00   1.325431737600000e+01 -1.21692275e+00  -6.01821130e+00  -5.18086300e-02
C     8.669568959475001e+00   5.050078368056522e+00   3.555359600000000e+00 -7.12728800e-02  -5.03409000e-03   7.48020450e-01
C     9.850415426774999e+00   5.759884937753147e+00   3.687406896000000e+00  1.30711008e+00   1.11507782e+00   4.60533800e-02
C     7.421156447774999e+00   1.066417165647834e-01   7.323956455999999e+00  4.29495300e-02  -2.55923170e+00  -2.21763645e+00
C     1.227514130775000e+00   7.517760410286126e-01   6.948927480000000e+00  1.87370173e+00  -1.07347866e+00  -8.06149800e-01
C     1.119520804575000e+00   6.204290672153574e-01   1.016304050400000e+01  6.20360881e+00  -6.64870780e-01   6.23426100e-01
C     2.430041443950000e+00   1.362838368783091e+00   1.024605585600000e+01 -1.31787184e+00  -1.06424909e+00  -5.56275780e-01
C     2.467250199900000e+00   3.525851356307280e-02   6.666425560000000e+00 -8.21488780e-01   9.23912000e-02   8.22600600e-01
C     3.632529489675000e+00   8.271649151940174e-01   6.535708480000000e+00  1.33564121e+00  -9.27003610e-01   7.92399330e-01
C     3.647135576025000e+00   6.966237251047075e-01   1.051134765600000e+01 -4.74744040e-01  -1.96107339e+00  -1.22351108e+00
C     4.868648479425000e+00   1.405875686070656e+00   1.035811482400000e+01  9.99049450e-01  -1.62961574e+00  -6.57198840e-01
C     4.819441816649999e+00   1.067949704553732e-01   6.825418400000000e+00  3.02036558e+00  -1.85876488e+00   1.00519341e+00
C     6.135799625324999e+00   7.601084928451014e-01   7.124193672000000e+00 -1.49622949e+00  -1.52386037e+00  -7.89100470e-01
C     6.104019538875000e+00   5.660273303126443e-01   1.036845422400000e+01  2.02882400e-01   1.95551027e+00  -8.30414890e-01
C     7.373570879924999e+00   1.276415790878428e+00   1.010835544800000e+01 -5.47219036e+00   3.39688896e+00   1.29229007e+00
C     1.323923263425000e+00   2.121607987479981e+00   6.745431768000000e+00 -2.26850123e+00   3.08201920e+00   1.41272989e+00
C     2.485202227950000e+00   2.975578820543129e+00   6.609596328000000e+00 -1.92617170e-01  -3.11676070e-01   8.23109840e-01
C     2.425439646375000e+00   2.738196613384432e+00   1.002866720000000e+01 -1.05653317e+00   1.52953106e+00   3.03556810e-01
C     3.618936333450000e+00   3.493540722637166e+00   9.936014071999999e+00  1.80973477e+00   1.35741490e-01   1.38609828e+00
C     3.680421765150000e+00   2.241167220233542e+00   6.462790312000000e+00  1.81095075e+00   3.58247890e-01   1.50823143e+00
C     4.983200135324999e+00   2.854575811897610e+00   6.643648144000000e+00 -1.80652495e+00   2.36860274e+00   8.18356440e-01
C     4.860547700625000e+00   2.812377644517441e+00   1.003289557600000e+01  4.08886370e-01  -1.07549109e+00   1.08872185e+00
C     6.099432494324999e+00   3.537030052444489e+00   1.017943897600000e+01  4.92977380e-01  -2.64596587e+00   9.60854400e-02
C     6.132548080799999e+00   2.132276520436062e+00   6.970022984000000e+00  2.48112842e+00   1.32723476e+00  -6.20685750e-01
C     7.467001824225000e+00   2.814891059557177e+00   6.980335727999999e+00 -1.14017794e+00  -1.61639580e+00  -1.02211272e+00
C     7.319352810524999e+00   2.803094672749371e+00   1.019328568000000e+01 -2.17548120e-01  -3.25001374e+00  -8.49835350e-01
C     8.548671543149998e+00   3.442829631454013e+00   1.014232566400000e+01  6.54871610e-01   7.07626700e-01   6.33270490e-01
C     9.883436542124999e+00   4.403796912924809e+00   6.946460576000001e+00  1.64645465e+00  -1.81276482e+00  -2.69726990e-01
C     3.851338295925000e+00   5.021685603174841e+00   7.172079272000000e+00 -4.95443244e+00   2.26352260e+00  -1.35523470e+00
C     3.751287162750000e+00   4.921384358061772e+00   1.014290380000000e+01 -4.68745014e+00  -1.40606447e+00  -1.53096880e-01
C     4.942107118650000e+00   5.615569533901128e+00   1.018345859200000e+01 -1.08803669e+00   4.84717190e-01   6.19800740e-01
C     5.010410296650000e+00   4.370113654667561e+00   6.803070744000000e+00 -4.77864900e-02  -3.20790555e+00   2.05702030e-01
C     6.236774874675000e+00   5.025846321421326e+00   6.723728072000000e+00  7.63417780e-01  -1.27432296e+00   9.82200990e-01
C     6.150651558449999e+00   4.898298801668672e+00   1.037639635200000e+01 -2.13133558e+00   1.12065190e+00  -1.04678359e+00
C     7.288992638024999e+00   5.594091638358624e+00   1.059854337600000e+01  4.56831955e+00   1.53077841e+00  -1.28425294e+00
C     7.465830234375000e+00   4.163925050523038e+00   6.852486752000000e+00 -1.46847782e+00   5.49392089e+00  -6.39758970e-01
C     8.599177544400000e+00   5.021436029246036e+00   6.917389215999999e+00  9.91701370e-01   1.25835384e+00  -2.07387790e-01
C     8.542567377374999e+00   4.823922888968984e+00   1.043325999200000e+01  7.91787840e-01   2.05848224e+00  -4.03040800e-01
C     9.820410879824999e+00   5.550228107764541e+00   1.040218603200000e+01  3.14451890e-01   7.44690670e-01  -1.19839551e+00
