72
Lattice="7.395 0 0 3.6975 6.40425786098592 0 0 0 13.6 " PBC="1 1 1" Properties=species:S:1:pos:R:3:force:R:3 Energy="-575.45926357"
C     3.677878291875000e+00   6.208540217456577e+00   3.004245440000000e-01 -4.73222090e-01  -3.87185451e+00   1.24302650e+00
C     1.241027014275000e+00   4.088895135010686e-01   3.639418480000000e-01 -3.02664230e-01   2.37060793e+00  -1.17491407e+00
C     1.457815173750000e+00   1.141410000507176e+00   3.414944495999999e+00  3.05938760e-01  -6.39509060e-01  -5.43530770e-01
C     2.675652133575000e+00   1.812102757451587e+00   3.361977528000000e+00  1.89410775e+00   1.28273411e+00   4.10939680e-01
C     6.189821320500000e+00   6.151826607508982e+00   3.062007360000000e-01 -2.90513276e+00   3.50202550e-01   6.72939000e-03
C     3.673766671875000e+00   4.261592352463446e-01   1.807112240000000e-01  1.25725352e+00   1.13175319e+00   1.83860164e+00
C     3.951724052850000e+00   1.143200118664204e+00   3.355122448000000e+00 -4.13165130e-01  -1.50177465e+00  -5.46663940e-01
C     5.218772149425000e+00   1.813496067791608e+00   3.227309240000000e+00 -1.80526960e+00  -2.73384070e-01   2.17508923e+00
C     8.590343662275000e+00   6.081735911828578e+00   3.422860240000000e-01 -5.67063010e-01   2.31573288e+00   1.22839500e-01
C     6.092245293825000e+00   3.793069655941566e-01   3.730742480000000e-01  1.82650914e+00   1.35345776e+00  -1.42170885e+00
C     6.455410453050000e+00   1.066502086107058e+00   3.336936936000000e+00 -3.17549132e+00   2.94686069e+00  -3.18032420e-01
C     7.610119440749999e+00   1.793273919130294e+00   3.382880592000000e+00  2.63192446e+00   2.52294858e+00  -2.25536800e-02
C     1.251777088800000e+00   1.823075236485703e+00   2.575242960000000e-01 -2.44067532e+00   2.55309394e+00   6.97153580e-01
C     2.427728620725000e+00   2.578274097170171e+00   3.730950560000000e-01  6.90262120e-01   9.77912980e-01  -6.40784190e-01
C     2.694780595200000e+00   3.232998349481301e+00   3.355957760000000e+00  1.26746037e+00   8.75891000e-01  -5.27971240e-01
C     3.934166289225000e+00   3.956761398119330e+00   3.215964528000000e+00  4.72660000e-04   1.25521949e+00   2.06467393e+00
C     3.647857845674999e+00   1.858333173665569e+00   3.654925200000000e-01  1.14030746e+00   1.90079360e-01  -2.20893665e+00
C     4.893741895949999e+00   2.539429391333235e+00   1.746314800000000e-01  6.84120960e-01   1.26433402e+00   1.44044317e+00
C     5.115503082000000e+00   3.221824328452330e+00   3.421605232000000e+00  2.74741194e+00   9.78720850e-01  -1.94034288e+00
C     6.373540999650000e+00   3.964482563523082e+00   3.451180472000000e+00  1.15771659e+00  -3.79736970e-01  -8.57838290e-01
C     6.119963084924999e+00   1.738458403127246e+00   1.578634960000000e-01  8.57565800e-02   5.91679164e+00   4.37760970e-01
C     7.366658477624999e+00   2.607383498506387e+00   1.923346000000000e-01 -3.23156150e-01  -1.61614442e+00  -1.16566113e+00
C     7.675822610700000e+00   3.248935985591697e+00   3.394350288000000e+00 -2.17490298e+00   2.56959600e-01   7.05247520e-01
C     8.918379354674999e+00   3.965362828765939e+00   3.446382528000000e+00 -2.46626520e+00   1.60711273e+00  -7.12026550e-01
C     2.411851703625000e+00   4.055981284292738e+00   3.555324240000000e-01  8.02741690e-01  -2.65948350e+00   9.17086180e-01
C     3.617411040750000e+00   4.768606431916127e+00   3.668629920000000e-01  3.11217329e+00  -8.73276120e-01  -6.19161370e-01
C     3.993907314375000e+00   5.463526496344917e+00   3.292536744000000e+00 -3.17343573e+00  -3.98643333e+00   1.46670440e-01
C     5.181475540875000e+00   6.148857273352194e+00   3.312870784000000e+00  9.92215370e-01  -1.13828525e+00   5.10173230e-01
C     4.930250308425000e+00   4.025122495879485e+00   3.202582400000000e-01 -2.62615401e+00  -9.21361980e-01  -7.25091010e-01
C     6.117159640424999e+00   4.781365058467397e+00   3.165764480000000e-01  9.02200550e-01  -2.47709961e+00  -1.57118510e+00
C     6.405696234450000e+00   5.387070480692301e+00   3.351471120000000e+00 -4.06393690e-01  -2.57506200e-01   8.07520420e-01
C     7.631694538125000e+00   6.093327874725492e+00   3.426522584000000e+00 -9.91503700e-02   1.91906690e+00  -7.09647850e-01
C     7.344493259249999e+00   4.116376445913732e+00   7.473676000000000e-02  8.42008540e-01  -4.75176915e+00   3.43658203e+00
C     8.594851247550000e+00   4.720549521360473e+00   4.910647200000000e-01 -1.89334383e+00  -7.28986870e-01  -3.46004194e+00
C     8.876236284974999e+00   5.485296233918101e+00   3.421213552000000e+00 -5.61018960e-01  -5.33981864e+00   2.54431670e-01
C     1.008310420432500e+01   6.113180817921178e+00   3.379414768000000e+00  3.25454417e+00  -6.14739020e-01  -4.64882230e-01
C     7.327453811175000e+00   2.906802342618174e-01   6.303301208000000e+00  2.18861585e+00  -2.89981912e+00   5.54590690e-01
C     1.176745126350000e+00   9.802719561510876e-01   6.350443567999999e+00  3.19790600e-01  -1.52171597e+00   5.04570000e-01
C     1.086948417825000e+00   2.781631122744475e-01   1.041159002400000e+01 -2.71250490e-01   1.19457638e+00  -1.12060900e+00
C     2.302858906200000e+00   9.942675651080172e-01   1.028788401600000e+01  1.46909530e-01  -2.41533900e-01  -4.89889580e-01
C     2.431993354200000e+00   2.848990466490168e-01   6.499739880000000e+00 -1.95261406e+00  -7.59661370e-01  -5.34338130e-01
C     3.644623087799999e+00   9.542540181690516e-01   6.483453608000000e+00  2.86663160e-01  -8.66563900e-02   5.12268220e-01
C     3.498595797600000e+00   2.291963488046232e-01   1.010095990400000e+01  1.74127401e+00   3.95248913e+00   1.84252127e+00
C     4.826173411199999e+00   1.069728935472397e+00   1.029661385600000e+01 -3.68094200e+00  -1.96994459e+00  -1.29378777e+00
C     4.867328656800000e+00   2.848840606856244e-01   6.507826440000000e+00  2.13514255e+00  -1.44436653e+00  -1.11279466e+00
C     6.161534816925000e+00   9.760999023681907e-01   6.341969816000000e+00 -4.09250204e+00   1.80679411e+00   1.32729030e+00
C     5.984243389425000e+00   3.488554879807998e-01   1.032182920800000e+01  2.94063657e+00  -1.26406572e+00  -1.98462210e-01
C     7.265934584325000e+00   1.079925986964825e+00   1.038164500000000e+01 -8.77494200e-01  -1.85387154e+00   6.92578000e-01
C     8.583573243975000e+00   2.338779829811826e+00   6.328989976000000e+00 -1.29761854e+00   3.72460386e+00   8.73544400e-01
C     2.426665108800000e+00   3.022067840689498e+00   6.481010503999999e+00 -1.55976618e+00   2.75390247e+00  -1.62665362e+00
C     2.297609676375000e+00   2.436738333357128e+00   1.028463660800000e+01  9.09546510e-01  -1.11053950e-01   7.16086210e-01
C     3.500963602650000e+00   3.165979712253758e+00   1.042315016000000e+01  2.71675879e+00  -1.95711321e+00  -1.33672473e+00
C     3.631795425000000e+00   2.328531928511989e+00   6.480483095999999e+00  9.11179280e-01   2.16120460e+00   6.12476890e-01
C     4.860786928874999e+00   3.065925543408929e+00   6.545674560000000e+00 -1.33743599e+00   2.24811515e+00  -2.81472550e-01
C     4.808725907025000e+00   2.481418534913518e+00   1.032643471200000e+01 -2.15146003e+00  -1.20741620e+00   8.80045100e-01
C     6.014099481749999e+00   3.157062039354023e+00   1.036827212000000e+01  5.53075630e-01   5.27213520e-01   1.11220490e-01
C     6.072182769749999e+00   2.454690172607072e+00   6.449171816000000e+00  2.66777353e+00  -3.26128681e+00  -7.56822250e-01
C     7.306207902225000e+00   3.158569409526531e+00   6.337364175999999e+00  6.86321150e-01  -3.79360249e+00   6.28798500e-01
C     7.263326700600000e+00   2.507481879083782e+00   1.043575545600000e+01  4.63029630e-01  -1.90371651e+00  -1.36436682e+00
C     8.522434563825000e+00   3.194468989301390e+00   1.028474826400000e+01 -2.10895395e+00  -1.72977376e+00   7.99316580e-01
C     9.785842619549999e+00   4.505547313506439e+00   6.301990440000000e+00  6.13781260e-01  -1.24541480e-01   2.14401641e+00
C     3.673221290625000e+00   5.211301460956992e+00   6.381661552000000e+00 -3.56064077e+00   1.61181116e+00  -2.84230650e-01
C     3.597545704350000e+00   4.529564689418168e+00   1.041887241600000e+01 -3.03833218e+00   2.92819740e+00  -9.06303010e-01
C     4.837286358375000e+00   5.253424954690512e+00   1.034464443200000e+01 -3.58460196e+00   1.35331653e+00   7.60314500e-01
C     4.852615749675000e+00   4.528246629108002e+00   6.535161488000000e+00  1.11193398e+00  -6.55271410e-01  -2.94364860e-01
C     6.081418533150000e+00   5.288093187806630e+00   6.511304096000000e+00 -7.00430410e-01  -2.20549644e+00   2.13433450e-01
C     6.002297468475000e+00   4.566624912844995e+00   1.030404326400000e+01  3.78002100e-02  -1.33173288e+00  -2.03138900e-01
C     7.162814267324999e+00   5.251384558136317e+00   1.015439960800000e+01  4.22822988e+00   7.00716040e-01   3.89664440e-01
C     7.245044744624999e+00   4.500543346627528e+00   6.428205104000000e+00  3.58031863e+00   4.33532547e+00   4.33935030e-01
C     8.543826228224999e+00   5.269900036120521e+00   6.425802664000000e+00  1.17900460e-01  -1.90057366e+00  -2.64731820e-01
C     8.463991176299999e+00   4.572359605545732e+00   1.024487184000000e+01  2.51215040e-01   1.40904495e+00  -5.75807280e-01
C     9.686164268324999e+00   5.268070467735075e+00   1.025484186400000e+01  1.71552943e+00   1.54570789e+00   1.07851555e+00
