72
Lattice="7.395 0 0 3.6975 6.40425786098592 0 0 0 13.6 " PBC="1 1 1" Properties=species:S:1:pos:R:3:force:R:3 Energy="-579.38810904"
C     3.714011482050000e+00   6.236940731490269e+00   1.352967929600000e+01 -8.11152770e-01   2.89379410e-01  -3.18356060e-01
C     1.276089149625000e+00   5.187831200794242e-01   1.357522841600000e+01 -2.13608886e+00   2.88650279e+00  -1.92321780e-01
C     1.361278366425000e+00   9.648994957968366e-01   3.629744800000000e+00  3.06585360e-01   1.81927100e-02  -4.12881090e-01
C     2.560669534050000e+00   1.722844630336830e+00   3.737664472000000e+00  1.30918339e+00  -2.00083297e+00  -1.11404030e+00
C     6.200142854775000e+00   6.283301346266545e+00   1.347899304800000e+01 -2.47598057e+00  -2.36324279e+00   3.28221260e-01
C     3.694994537025000e+00   5.568482356070634e-01   1.348703146400000e+01 -5.96469290e-01   5.79491150e-01  -2.90518210e-01
C     3.807969504975000e+00   9.991002821317519e-01   3.616774344000000e+00 -1.84906280e+00  -3.16761557e+00   2.99900120e-01
C     5.035064598075000e+00   1.612119430875354e+00   3.573851656000000e+00  3.90537530e-01   1.21978432e+00  -3.76135470e-01
C     8.561359810199999e+00   6.254249006867862e+00   1.345270832800000e+01  3.01830696e+00  -6.87019730e-01  -1.55599000e-01
C     6.110565999599999e+00   5.162519652454164e-01   1.349429481600000e+01  1.71560706e+00  -6.10157900e-02   2.41048540e-01
C     6.267115339499999e+00   9.200465714059621e-01   3.476459744000000e+00  1.29932599e+00   6.28966780e-01   4.33049710e-01
C     7.523126990174999e+00   1.649047918718000e+00   3.557764624000000e+00 -9.10946750e-01  -1.43547882e+00   4.09127400e-02
C     1.211820757575000e+00   2.010187477742644e+00   2.675881600000000e-02  9.90795820e-01  -1.54998251e+00  -6.36868250e-01
C     2.449598297925000e+00   2.704109822839425e+00   4.961783200000000e-02 -3.08917080e-01   6.95546950e-01  -1.00016106e+00
C     2.578704940725000e+00   3.109489610905478e+00   3.651053144000000e+00 -5.48080800e-01   1.62003445e+00   1.22914870e-01
C     3.800474302725000e+00   3.830319445401049e+00   3.610530856000000e+00  1.84136100e+00  -9.21760940e-01  -1.05274703e+00
C     3.677531170575000e+00   1.939188594255112e+00   1.350958964800000e+01  1.16421620e-01   2.97237766e+00   1.39137914e+00
C     4.929587901300000e+00   2.639531143813965e+00   1.358835704000000e+01 -1.12431417e+00   1.91090269e+00  -9.81396360e-01
C     5.002412086500000e+00   3.012861976186062e+00   3.559810199999999e+00  1.87447360e+00   3.44902492e+00   6.93036530e-01
C     6.307120292850000e+00   3.755214600071735e+00   3.601538536000000e+00 -2.56673058e+00  -6.21857660e-01  -4.20965190e-01
C     6.114527057399999e+00   1.908314883921046e+00   1.353144253600000e+01  2.00869081e+00   2.31353172e+00  -1.75511880e-01
C     7.385963346974999e+00   2.696793470575004e+00   1.348338761600000e+01 -1.78684192e+00  -4.05256750e-01   1.00923268e+00
C     7.517393313900000e+00   3.033731659359602e+00   3.624626440000000e+00  1.01924389e+00   2.66563940e+00  -3.53797370e-01
C     8.749901473049999e+00   3.817423895816731e+00   3.598054488000000e+00 -8.39802590e-01   8.48913000e-02   5.72225670e-01
C     9.804253877099999e+00   4.183008394051687e+00   1.356656956800000e+01  2.43928148e+00  -3.10386869e+00  -3.84376430e-01
C     3.685385363100000e+00   4.832490825346985e+00   1.350604331200000e+01 -2.26178000e-02   1.91110700e-02   4.78279650e-01
C     3.873204312600000e+00   5.271701361728803e+00   3.438272440000000e+00 -1.70048385e+00  -2.18521515e+00   1.00195670e+00
C     5.092509327825000e+00   5.952093623372497e+00   3.499018879999999e+00  1.46639100e-02  -3.66721960e-01   4.31151900e-01
C     4.928691627299999e+00   4.136580214354989e+00   1.353162015200000e+01 -1.29525613e+00  -2.31778178e+00   1.04197610e-01
C     6.122552702999999e+00   4.840487309796139e+00   1.346382945600000e+01  1.05266156e+00   6.97220780e-01   1.82344530e-01
C     6.289664617200000e+00   5.172549232603553e+00   3.580919168000000e+00  8.03187320e-01   7.75666290e-01  -1.92601840e-01
C     7.523520736949999e+00   5.907381080313914e+00   3.579831304000000e+00 -1.38762783e+00   2.70749372e+00   4.37555220e-01
C     7.330763628300000e+00   4.132276809243383e+00   1.347390882400000e+01  2.32652449e+00  -1.19254495e+00  -5.26049690e-01
C     8.617680647849999e+00   4.851435260522651e+00   1.341640911200000e+01 -3.08897016e+00  -6.21235810e-01   1.01437471e+00
C     8.756821677074999e+00   5.291140653909311e+00   3.605325184000000e+00 -2.56356400e-02  -4.17808062e+00  -8.07871340e-01
C     9.993824147474999e+00   5.918650588827577e+00   3.472495616000000e+00  9.12056800e-01   1.62528337e+00   1.73135670e-01
C     7.446661359074999e+00   1.486992464423466e-01   7.000087143999999e+00 -9.66680650e-01  -6.11482940e-01  -1.63019390e-01
C     1.258997307975000e+00   8.896351204042302e-01   7.013436360000000e+00  3.70663520e-01  -2.22209587e+00  -5.64937080e-01
C     1.127149227750000e+00   4.750481229405912e-01   9.911765408000001e+00 -2.04832287e+00  -2.26146110e-01   4.03148450e-01
C     2.327300342550000e+00   1.165861072761185e+00   1.003233852000000e+01  1.67086170e-01   1.16551674e+00   1.28102320e-01
C     2.507521077450000e+00   1.572436151514228e-01   6.871399047999999e+00 -1.39401161e+00   1.64133948e+00   4.99139150e-01
C     3.742245702975000e+00   8.074447963063482e-01   6.839517384000000e+00  1.38255383e+00   1.23029607e+00   4.61263940e-01
C     3.514288431300000e+00   4.478324606535780e-01   1.011078794400000e+01  3.41444311e+00   7.56485490e-01  -9.72012560e-01
C     4.831563182999999e+00   1.217706101841029e+00   9.973383200000001e+00 -2.49799941e+00  -1.44591117e+00   9.49353460e-01
C     5.020097044125000e+00   1.378860413012082e-01   6.920897608000001e+00 -1.41405327e+00   6.54270690e-01  -8.28095400e-02
C     6.233424532949999e+00   8.706463037215945e-01   7.021974304000000e+00 -4.04553270e-01   1.33100639e+00  -9.71056760e-01
C     6.050787851550000e+00   5.146487233327440e-01   9.895176128000001e+00 -4.72845800e-02  -5.72540920e-01   2.85840790e-01
C     7.288004887875000e+00   1.245174412100619e+00   9.854031231999999e+00  6.08913200e-01  -1.87996208e+00   1.52976360e-01
C     8.640408810600000e+00   2.263067092326441e+00   7.083966504000000e+00 -1.02589002e+00   1.52944968e+00  -1.29071238e+00
C     2.484619428000000e+00   2.884867247107045e+00   6.972623575999999e+00  8.39930210e-01   3.68430738e+00   2.80155460e-01
C     2.346494139000000e+00   2.596716630657349e+00   1.002612903200000e+01 -3.61103380e-01   1.74054080e+00  -9.96493000e-02
C     3.579870877875000e+00   3.350360153277938e+00   9.959687863999999e+00 -8.24511840e-01  -2.11688860e+00   5.43540500e-01
C     3.748596011325000e+00   2.234804654092210e+00   6.892089952000000e+00 -2.00593243e+00  -1.30247195e+00   4.38599700e-02
C     4.930879142249999e+00   2.942555392973196e+00   6.924743552000000e+00  8.81203800e-01   3.60160129e+00  -2.10860000e-02
C     4.803182615025000e+00   2.633282189207069e+00   9.975613056000000e+00  5.36217670e-01  -8.67643400e-01  -7.03766530e-01
C     6.031511563875000e+00   3.297715744732009e+00   9.839544783999999e+00  4.80763080e-01   2.14537779e+00   5.41063400e-01
C     6.184145288250000e+00   2.371448141283421e+00   6.957051712000000e+00  5.17595640e-01  -4.57644185e+00   1.41540510e-01
C     7.391820408825000e+00   3.054158744272436e+00   6.985487407999999e+00  1.16527994e+00  -9.99936350e-01   1.13861360e-01
C     7.304256768449999e+00   2.652671143920798e+00   9.801118256000001e+00 -1.28559309e+00  -4.69228830e-01   1.53999943e+00
C     8.505348712125000e+00   3.371540442957687e+00   1.000060577600000e+01  1.25848266e+00  -2.10239389e+00  -6.88122540e-01
C     9.880876947750000e+00   4.372377815991386e+00   7.004189992000001e+00 -1.30023746e+00  -6.35872960e-01  -7.88319840e-01
C     3.683487990975000e+00   5.091505462790347e+00   6.948744560000001e+00  1.55966292e+00   9.53716240e-01   3.78863620e-01
C     3.589364357025000e+00   4.725812860682715e+00   9.867299800000000e+00 -2.12059688e+00   1.86520761e+00   7.39859360e-01
C     4.805103355350000e+00   5.432058342796286e+00   9.899830320000000e+00 -6.68725010e-01   2.06508139e+00  -2.38725900e-02
C     4.931049523050000e+00   4.401961644749870e+00   6.970501295999999e+00 -4.86100790e-01   2.76267620e-01  -7.70002320e-01
C     6.138929189324999e+00   5.198481673743157e+00   6.915881927999999e+00  3.74284030e-01  -4.19077714e+00  -1.96411480e-01
C     6.010684840500000e+00   4.761855959876216e+00   9.897983439999999e+00  5.33582810e-01  -2.69311664e+00   5.08223120e-01
C     7.214966173724999e+00   5.432465205298132e+00   1.004763253600000e+01  1.73954009e+00   1.46756134e+00  -2.53962000e-01
C     7.364405775749999e+00   4.442468959969841e+00   6.914581496000000e+00  1.78870428e+00   1.90906179e+00   1.84655460e-01
C     8.655387937724999e+00   5.150333310385263e+00   6.952001352000001e+00 -5.70717900e-02  -2.40672267e+00  -1.02938390e-01
C     8.493982079475000e+00   4.762365162418664e+00   1.001196626400000e+01 -4.25606440e-01   7.57376880e-01   7.45522800e-02
C     9.708791489324998e+00   5.464930437752987e+00   9.926725407999999e+00  1.78886933e+00   6.43090800e-01   1.91183030e-01
