2
Lattice="2.2736520000000002 0.0 0.0 -1.1368259999999997 1.9690403913652967 0.0 0.0 0.0 30.0" Properties=species:S:1:pos:R:3:forces:R:3 Energy=-22.67741427 dipole="_JSON [[0.0, 0.0, 0.0]]" pbc="T T T"
C 0.00000000 0.00000000 0.00000000 -0.00000000 0.00000000 -0.00000000
C 0.00000000 1.31269359 0.00000000 0.00000000 -0.00000000 0.00000000
