2
Lattice="2.155284 0.0 0.0 -1.0776419999999995 1.8665306963701402 0.0 0.0 0.0 30.0" Properties=species:S:1:pos:R:3:forces:R:3 Energy=-19.66820844 dipole="_JSON [[0.0, 0.0, 0.0]]" pbc="T T T"
C 0.00000000 0.00000000 0.00000000 -0.00000000 0.00000000 0.00000000
C 0.00000000 1.24435380 0.00000000 0.00000000 -0.00000000 -0.00000000
