2
Lattice="2.214468 0.0 0.0 -1.1072339999999996 1.9177855438677185 0.0 0.0 0.0 30.0" Properties=species:S:1:pos:R:3:forces:R:3 Energy=-21.421520970000003 dipole="_JSON [[0.0, 0.0, 0.0]]" pbc="T T T"
C 0.00000000 0.00000000 0.00000000 -0.00000000 0.00000000 -0.00000000
C 0.00000000 1.27852370 0.00000000 0.00000000 -0.00000000 0.00000000
