2
Lattice="2.9246760000000007 0.0 0.0 -1.4623379999999997 2.5328437138386577 0.0 0.0 0.0 30.0" Properties=species:S:1:pos:R:3:forces:R:3 Energy=-19.69302153 dipole="_JSON [[0.0, 0.0, 0.0]]" pbc="T T T"
C 0.00000000 0.00000000 0.00000000 -0.00000000 -0.00000000 0.00000000
C 0.00000000 1.68856248 0.00000000 0.00000000 0.00000000 -0.00000000
