2
Lattice="2.3920200000000005 0.0 0.0 -1.1960099999999998 2.0715500863604537 0.0 0.0 0.0 30.0" Properties=species:S:1:pos:R:3:forces:R:3 Energy=-23.998577235 dipole="_JSON [[0.0, 0.0, 0.0]]" pbc="T T T"
C 0.00000000 0.00000000 0.00000000 -0.00000000 0.00000000 -0.00000000
C 0.00000000 1.38103339 0.00000000 0.00000000 -0.00000000 0.00000000
