2
Lattice="2.5695720000000004 0.0 0.0 -1.2847859999999995 2.225314628853188 0.0 0.0 0.0 30.0" Properties=species:S:1:pos:R:3:forces:R:3 Energy=-23.864310645 dipole="_JSON [[0.0, 0.0, 0.0]]" pbc="T T T"
C 0.00000000 0.00000000 0.00000000 0.00000000 0.00000000 -0.00000000
C 0.00000000 1.48354309 0.00000000 -0.00000000 -0.00000000 0.00000000
