64
Lattice="9.86 0 0 4.93 8.53901048131456 0 0 0 30 " PBC="1 1 1" Properties=species:S:1:pos:R:3:force:R:3 Energy="-517.20712162"
C     0.000000000000000e+00   0.000000000000000e+00   0.000000000000000e+00  1.15000000e-06   1.41000000e-06  -5.00684200e-02
C     1.232499950700000e+00   7.115841782032983e-01   0.000000000000000e+00 -3.30000000e-07   1.93000000e-06  -5.00679100e-02
C     0.000000000000000e+00   0.000000000000000e+00   3.399999900000000e+00 -9.60000000e-07   1.85000000e-06   5.82760600e-02
C     1.232499950700000e+00   7.115841782032983e-01   3.399999900000000e+00 -7.30000000e-07   2.95000000e-06   5.82764300e-02
C     2.465000000000000e+00   0.000000000000000e+00   0.000000000000000e+00  4.42000000e-06   9.10000000e-07  -5.00679300e-02
C     3.697499950699999e+00   7.115841782032983e-01   0.000000000000000e+00  1.55000000e-06  -1.26000000e-06  -5.00672800e-02
C     2.465000000000000e+00   0.000000000000000e+00   3.399999900000000e+00  4.46000000e-06   4.62000000e-06   5.82754400e-02
C     3.697499950699999e+00   7.115841782032983e-01   3.399999900000000e+00 -1.32000000e-06   1.00000000e-08   5.82756600e-02
C     4.930000000000000e+00   0.000000000000000e+00   0.000000000000000e+00 -1.27000000e-06   2.51000000e-06  -5.00681400e-02
C     6.162499950699999e+00   7.115841782032983e-01   0.000000000000000e+00 -1.07000000e-06   2.44000000e-06  -5.00682200e-02
C     4.930000000000000e+00   0.000000000000000e+00   3.399999900000000e+00 -1.60000000e-06   2.51000000e-06   5.82758300e-02
C     6.162499950699999e+00   7.115841782032983e-01   3.399999900000000e+00  1.99000000e-06   3.84000000e-06   5.82768700e-02
C     7.395000000000000e+00   0.000000000000000e+00   0.000000000000000e+00  2.03000000e-06   1.69000000e-06  -5.00681500e-02
C     8.627499950699999e+00   7.115841782032983e-01   0.000000000000000e+00 -3.70000000e-07  -2.30000000e-06  -5.00677000e-02
C     7.395000000000000e+00   0.000000000000000e+00   3.399999900000000e+00  3.02000000e-06   4.14000000e-06   5.82758900e-02
C     8.627499950699999e+00   7.115841782032983e-01   3.399999900000000e+00 -2.60000000e-07   2.60000000e-07   5.82763500e-02
C     1.232500000000000e+00   2.134752620000000e+00   0.000000000000000e+00  2.03000000e-06   6.00000000e-08  -5.00682900e-02
C     2.464999950700000e+00   2.846336798203298e+00   0.000000000000000e+00 -1.65000000e-06   1.27000000e-06  -5.00674700e-02
C     1.232500000000000e+00   2.134752620000000e+00   3.399999900000000e+00  2.72000000e-06   2.70000000e-07   5.82759300e-02
C     2.464999950700000e+00   2.846336798203298e+00   3.399999900000000e+00 -2.05000000e-06  -1.61000000e-06   5.82758300e-02
C     3.697500000000000e+00   2.134752620000000e+00   0.000000000000000e+00  2.77000000e-06  -4.40000000e-07  -5.00687100e-02
C     4.929999950699999e+00   2.846336798203298e+00   0.000000000000000e+00  2.95000000e-06   2.16000000e-06  -5.00684500e-02
C     3.697500000000000e+00   2.134752620000000e+00   3.399999900000000e+00 -9.00000000e-07  -1.08000000e-06   5.82760500e-02
C     4.929999950699999e+00   2.846336798203298e+00   3.399999900000000e+00  2.39000000e-06   1.17000000e-06   5.82759100e-02
C     6.162500000000000e+00   2.134752620000000e+00   0.000000000000000e+00 -3.10000000e-06   6.70000000e-07  -5.00688500e-02
C     7.394999950699999e+00   2.846336798203298e+00   0.000000000000000e+00 -4.74000000e-06   7.80000000e-07  -5.00676900e-02
C     6.162500000000000e+00   2.134752620000000e+00   3.399999900000000e+00  3.06000000e-06   1.01000000e-06   5.82753700e-02
C     7.394999950699999e+00   2.846336798203298e+00   3.399999900000000e+00 -4.07000000e-06  -2.61000000e-06   5.82762100e-02
C     8.627500000000000e+00   2.134752620000000e+00   0.000000000000000e+00  1.74000000e-06  -7.40000000e-07  -5.00682000e-02
C     9.859999950699999e+00   2.846336798203298e+00   0.000000000000000e+00  2.50000000e-06   2.09000000e-06  -5.00677800e-02
C     8.627500000000000e+00   2.134752620000000e+00   3.399999900000000e+00  3.40000000e-07  -1.76000000e-06   5.82753400e-02
C     9.859999950699999e+00   2.846336798203298e+00   3.399999900000000e+00  7.80000000e-07  -1.40000000e-07   5.82763200e-02
C     2.465000000000000e+00   4.269505240000000e+00   0.000000000000000e+00  9.40000000e-07   1.27000000e-06  -5.00678300e-02
C     3.697499950700000e+00   4.981089418203299e+00   0.000000000000000e+00 -2.92000000e-06  -3.00000000e-07  -5.00678600e-02
C     2.465000000000000e+00   4.269505240000000e+00   3.399999900000000e+00 -3.40000000e-07  -1.83000000e-06   5.82757200e-02
C     3.697499950700000e+00   4.981089418203299e+00   3.399999900000000e+00  2.00000000e-07   1.15000000e-06   5.82764800e-02
C     4.930000000000000e+00   4.269505240000000e+00   0.000000000000000e+00  2.10000000e-06  -3.72000000e-06  -5.00679500e-02
C     6.162499950699999e+00   4.981089418203299e+00   0.000000000000000e+00 -1.30000000e-06  -3.76000000e-06  -5.00679400e-02
C     4.930000000000000e+00   4.269505240000000e+00   3.399999900000000e+00  2.52000000e-06  -1.14000000e-06   5.82761900e-02
C     6.162499950699999e+00   4.981089418203299e+00   3.399999900000000e+00 -1.34000000e-06  -8.40000000e-07   5.82763100e-02
C     7.395000000000000e+00   4.269505240000000e+00   0.000000000000000e+00 -6.90000000e-07   3.06000000e-06  -5.00684000e-02
C     8.627499950699999e+00   4.981089418203299e+00   0.000000000000000e+00 -3.45000000e-06  -1.25000000e-06  -5.00676300e-02
C     7.395000000000000e+00   4.269505240000000e+00   3.399999900000000e+00 -2.36000000e-06  -1.26000000e-06   5.82752400e-02
C     8.627499950699999e+00   4.981089418203299e+00   3.399999900000000e+00 -4.00000000e-07   7.00000000e-07   5.82761600e-02
C     9.859999999999999e+00   4.269505240000000e+00   0.000000000000000e+00  1.81000000e-06  -7.20000000e-07  -5.00687600e-02
C     1.109249995070000e+01   4.981089418203299e+00   0.000000000000000e+00  1.16000000e-06  -2.30000000e-06  -5.00679200e-02
C     9.859999999999999e+00   4.269505240000000e+00   3.399999900000000e+00  2.31000000e-06  -1.34000000e-06   5.82755200e-02
C     1.109249995070000e+01   4.981089418203299e+00   3.399999900000000e+00 -2.69000000e-06  -1.29000000e-06   5.82766400e-02
C     3.697500000000000e+00   6.404257860000000e+00   0.000000000000000e+00 -1.69000000e-06  -4.50000000e-07  -5.00684800e-02
C     4.929999950699999e+00   7.115842038203298e+00   0.000000000000000e+00 -4.01000000e-06  -1.10000000e-06  -5.00685300e-02
C     3.697500000000000e+00   6.404257860000000e+00   3.399999900000000e+00  2.28000000e-06   1.43000000e-06   5.82757300e-02
C     4.929999950699999e+00   7.115842038203298e+00   3.399999900000000e+00 -4.34000000e-06  -1.85000000e-06   5.82761000e-02
C     6.162500000000000e+00   6.404257860000000e+00   0.000000000000000e+00  8.40000000e-07  -1.17000000e-06  -5.00688400e-02
C     7.394999950699999e+00   7.115842038203298e+00   0.000000000000000e+00  1.59000000e-06  -4.10000000e-07  -5.00680200e-02
C     6.162500000000000e+00   6.404257860000000e+00   3.399999900000000e+00 -7.70000000e-07  -1.58000000e-06   5.82756900e-02
C     7.394999950699999e+00   7.115842038203298e+00   3.399999900000000e+00  7.50000000e-07  -3.23000000e-06   5.82753800e-02
C     8.627500000000000e+00   6.404257860000000e+00   0.000000000000000e+00 -1.96000000e-06   1.21000000e-06  -5.00680600e-02
C     9.859999950699999e+00   7.115842038203298e+00   0.000000000000000e+00 -3.61000000e-06   1.36000000e-06  -5.00679600e-02
C     8.627500000000000e+00   6.404257860000000e+00   3.399999900000000e+00  4.20000000e-07   2.03000000e-06   5.82755100e-02
C     9.859999950699999e+00   7.115842038203298e+00   3.399999900000000e+00 -4.99000000e-06  -2.69000000e-06   5.82762200e-02
C     1.109250000000000e+01   6.404257860000000e+00   0.000000000000000e+00  9.20000000e-07  -1.73000000e-06  -5.00686700e-02
C     1.232499995070000e+01   7.115842038203298e+00   0.000000000000000e+00  2.21000000e-06  -2.82000000e-06  -5.00677700e-02
C     1.109250000000000e+01   6.404257860000000e+00   3.399999900000000e+00  5.00000000e-07  -1.18000000e-06   5.82757900e-02
C     1.232499995070000e+01   7.115842038203298e+00   3.399999900000000e+00  2.80000000e-07  -2.22000000e-06   5.82761500e-02
