64
Lattice="9.86 0 0 4.93 8.53901048131456 0 0 0 30 " PBC="1 1 1" Properties=species:S:1:pos:R:3:force:R:3 Energy="-514.90240688"
C     5.030432826100000e+00   6.878528079085863e+00  -5.567339999999987e-02 -1.72875701e+00  -7.72709850e-01   3.66789270e-01
C     6.254616310499999e+00   7.580473166089024e+00   3.669720000000000e-02 -4.89050330e-01  -9.11416690e-01  -1.83987410e-01
C     9.782802658300000e+00   1.666436652921841e+00   3.177978900000000e+00  5.44071330e-01   1.70066353e+00   1.25366405e+00
C     1.103603779460000e+01   2.415202586018622e+00   3.229515000000000e+00 -2.36631720e-01  -9.91796460e-01   2.82093100e-01
C     7.437734719000000e+00   6.812509829631106e+00   1.723170000000000e-02  2.32155088e+00   2.09122787e+00   4.88405430e-01
C     8.707188076300000e+00   7.587415040048844e+00   9.390720000000000e-02 -1.65714485e+00  -1.32567365e+00  -1.44819031e+00
C     2.418633054200000e+00   1.679546681101890e+00   3.271845900000000e+00 -4.91812100e-02  -5.79331100e-02   4.02366590e-01
C     3.675716400600000e+00   2.361920185304680e+00   3.387553800000000e+00 -1.16639844e+00   5.54399610e-01  -4.51639590e-01
C     9.915695935499999e+00   6.825023664099440e+00  -6.328740000000010e-02 -9.18789520e-01   1.42467668e+00   1.04368145e+00
C     1.110584600300000e+01   7.559377455308078e+00  -2.263289999999785e-02  1.72528867e+00   5.75748380e-01  -5.63248000e-02
C     4.926524152800000e+00   1.672507291642387e+00   3.396480300000000e+00 -2.45576190e+00  -2.10138330e-01   5.42516400e-02
C     6.120913428700000e+00   2.409890040648490e+00   3.414132000000000e+00 -7.07745810e-01  -2.33576814e+00  -3.82213880e-01
C     1.235856536270000e+01   6.900389653716759e+00  -1.785899999999785e-02  1.38986510e+00  -2.27034847e+00  -3.90373730e-01
C     1.362743796600000e+01   7.562148193428629e+00  -6.478170000000105e-02 -5.42274530e-01   1.84834420e+00   4.61100120e-01
C     7.288998443100000e+00   1.659179518695099e+00   3.397451400000000e+00  2.88187628e+00   5.65520460e-01   1.17144390e-01
C     8.546547921000000e+00   2.382438915147491e+00   3.294624000000000e+00  1.10023140e-01  -7.04076850e-01   5.62118290e-01
C     1.313740631900000e+00   4.426343807189304e-01   1.389336000000000e-01  1.57364130e-01   1.42010775e+00  -4.96941470e-01
C     2.540890398700000e+00   1.204080317427988e+00   1.075746000000000e-01 -3.26698430e-01  -1.73980581e+00  -5.97940900e-02
C     1.103547153480000e+01   3.838420127125584e+00   3.373719300000000e+00 -4.44798560e-01  -5.90797550e-01   7.53673200e-02
C     1.225484235320000e+01   4.524300261372091e+00   3.432004500000000e+00  7.02134570e-01  -5.55180720e-01  -2.14070050e-01
C     3.756154970799999e+00   4.869140172937040e-01   4.221690000000000e-02  8.43610660e-01  -1.33631432e+00   1.86912770e-01
C     5.018364186099999e+00   1.159673705767377e+00  -2.930699999999931e-02 -2.33695100e+00   1.28995410e+00   6.53751630e-01
C     3.609126200400000e+00   3.791126988362314e+00   3.381718800000000e+00  1.49439429e+00   4.62389730e-01   2.49904740e-01
C     4.845045500499999e+00   4.516045002210341e+00   3.355674300000000e+00  8.71248760e-01   4.72363580e-01   6.37931000e-02
C     6.194302641199999e+00   4.419474173258144e-01   2.439150000000000e-02  1.58184696e+00   6.74710330e-01  -6.18037280e-01
C     7.442055223100000e+00   1.203888872813027e+00   3.306900000000000e-02  2.02269670e-01  -2.05009899e+00  -2.62109500e-02
C     6.115166281200000e+00   3.774454570400113e+00   3.317376600000000e+00 -2.33658614e+00   2.47644778e+00   6.53576540e-01
C     7.298860415100000e+00   4.489319948770457e+00   3.389849700000000e+00  2.08927053e+00   3.85514240e-01   9.71775400e-02
C     8.670061873199998e+00   4.945181769063536e-01  -3.297000000017647e-04  1.14603443e+00  -1.92907285e+00   4.32529310e-01
C     9.936657260200001e+00   1.151258083988813e+00   1.286157000000000e-01 -1.00102534e+00   1.20581318e+00  -1.08996085e+00
C     8.556113600000000e+00   3.781920568823197e+00   3.442039800000000e+00  6.68823930e-01   1.46628813e+00  -7.39228870e-01
C     9.823601612799999e+00   4.559113977879260e+00   3.461980800000000e+00 -2.78923746e+00  -1.69641315e+00  -3.76113090e-01
C     2.539293078700000e+00   2.595385697788884e+00   1.010628000000000e-01 -1.01675710e+00   4.50991680e-01   1.44040670e-01
C     3.746514799500000e+00   3.323792495148726e+00   8.063400000000001e-02  8.72837280e-01  -9.89722340e-01  -4.53805380e-01
C     1.226425323020000e+01   5.927611319687657e+00   3.465953100000000e+00 -2.71636560e-01   1.05476005e+00   1.48049770e-01
C     1.347297352310000e+01   6.677016312328762e+00   3.438346200000000e+00  1.63434461e+00  -3.02667670e-01   1.25285430e-01
C     4.962140789899999e+00   2.599735469727396e+00   5.630100000000000e-03  1.66623404e+00  -1.63113140e-01  -8.99885200e-02
C     6.210758537500000e+00   3.310977660560970e+00  -1.527390000000040e-02  9.42762280e-01  -7.11373670e-01   6.24487460e-01
C     4.872724837600000e+00   5.984688115098493e+00   3.390024300000000e+00 -4.25955580e-01  -1.67664086e+00  -7.44523260e-01
C     6.125263611399999e+00   6.670437773264865e+00   3.254577000000000e+00 -1.76293612e+00   3.74180260e-01   9.97183420e-01
C     7.489757459400000e+00   2.590129168327501e+00   6.784770000000000e-02 -2.47235590e+00   1.58845093e+00  -3.84387830e-01
C     8.689733361999998e+00   3.335911144212047e+00   9.865560000000000e-02  5.74655410e-01  -1.78419852e+00  -4.29831930e-01
C     7.313498324599999e+00   5.906681521880340e+00   3.361503600000000e+00 -1.08573380e-01   1.47317506e+00  -5.13072450e-01
C     8.509452974100000e+00   6.676921187752015e+00   3.360081300000000e+00  8.75971730e-01  -1.11850340e+00   3.64600000e-01
C     9.911231130299999e+00   2.612693930471425e+00   4.206389999999999e-02  3.66991870e-01  -1.80421257e+00   1.23429872e+00
C     1.114360383770000e+01   3.255335589690985e+00   1.178703000000000e-01  1.07518388e+00   2.79750687e+00  -4.58793170e-01
C     9.732628963699998e+00   5.963228642471099e+00   3.443468700000000e+00  2.38258173e+00   3.04945370e-01   1.32831790e-01
C     1.103335365610000e+01   6.634579138045258e+00   3.469819500000000e+00 -1.56396531e+00   8.91040440e-01  -5.83853980e-01
C     3.803418437099999e+00   4.719990728514661e+00   3.232620000000000e-02 -1.58118568e+00   1.21829086e+00  -8.84288000e-02
C     5.004938810100000e+00   5.437525486951158e+00  -1.033530000000127e-02  1.63570506e+00   6.15769940e-01  -2.72303630e-01
C     1.353924371700000e+01   8.100516067732087e+00   3.442646700000000e+00 -2.62148586e+00  -6.96072170e-01   1.38250630e-01
C     9.795390525899998e+00   2.690791634931400e-01   3.325812600000000e+00  8.15321030e-01   2.39757770e-01  -8.24524300e-01
C     6.266911237500000e+00   4.725323682119841e+00  -4.971900000001028e-03 -2.40029351e+00  -7.28797090e-01  -1.95022240e-01
C     7.473673482299999e+00   5.397992600912111e+00  -1.024170000000169e-02  3.74763460e-01   1.59082840e+00   4.23618780e-01
C     6.090785311299999e+00   8.133122193859863e+00   3.233503200000000e+00  7.26267490e-01  -2.80448758e+00   5.59110410e-01
C     2.402073430700000e+00   2.350380566542008e-01   3.280173300000000e+00 -1.30376150e+00   2.75602899e+00  -3.94394240e-01
C     8.706829911800000e+00   4.723274575774956e+00   7.929180000000000e-02 -2.59208640e-01   3.08023250e-01  -7.05993940e-01
C     9.920335755699998e+00   5.421870577477755e+00  -6.031199999998904e-03  1.46743295e+00  -3.69394430e-01   5.21608530e-01
C     8.522074069900000e+00   8.095183711857642e+00   3.325971300000000e+00  1.49509908e+00  -9.89216110e-01   5.45318800e-02
C     4.836231449300000e+00   2.513665232742664e-01   3.359857800000000e+00  1.81196657e+00  -2.70426490e-01   1.04526280e-01
C     1.119340221140000e+01   4.722561397619666e+00   8.833829999999999e-02 -1.50101759e+00  -8.94124240e-01  -6.86115550e-01
C     1.240907967100000e+01   5.431863866832604e+00   7.488600000000000e-03 -7.05387300e-02   1.11613248e+00   3.84791290e-01
C     1.101954191600000e+01   8.065632672899401e+00   3.381990300000000e+00  5.98728670e-01  -3.55400600e-02   1.14874070e+00
C     7.354742014399999e+00   2.549179831230032e-01   3.499205400000000e+00 -1.47718094e+00  -5.48825740e-01  -1.21006609e+00
