64
Lattice="9.86 0 0 4.93 8.53901048131456 0 0 0 30 " PBC="1 1 1" Properties=species:S:1:pos:R:3:force:R:3 Energy="-511.12465985"
C     4.949921045400000e+00   8.448699172680167e+00  -4.580610000000007e-02  1.80633600e-02   1.49173968e+00  -6.09054340e-01
C     1.255287248800000e+00   6.743391492421584e-01  -1.030200000002424e-03 -6.34609320e-01  -1.63072585e+00  -7.16155450e-01
C     1.233971161300000e+00   7.661750968831960e-01   3.563670600000000e+00 -2.70924605e+00   1.02408806e+00   9.78001300e-02
C     2.449810719300000e+00   1.441243306840137e+00   3.546854100000000e+00  1.82142453e+00   2.53376798e+00   7.41975700e-01
C     7.394221109299999e+00   8.501453606376129e+00  -6.333779999999933e-02  2.27538039e+00  -8.11236230e-01  -7.93736150e-01
C     3.748126515100000e+00   6.523005609240120e-01  -2.822153999999983e-01 -7.86230310e-01   2.08555220e-01   1.13217198e+00
C     3.682913263900000e+00   7.684913888660008e-01   3.730387800000000e+00  8.28377210e-01  -5.30788100e-01  -2.27555270e-01
C     4.900929614100000e+00   1.513705008212998e+00   3.673303800000000e+00 -6.65986020e-01   2.08726449e+00   2.63749840e-01
C     9.938287266100000e+00   8.468676614648651e+00  -3.046707000000026e-01 -2.39251861e+00   3.79352210e-01   4.53568830e-01
C     6.252864780100000e+00   6.712602382333848e-01  -1.632245999999995e-01 -2.66594181e+00  -4.38223227e+00  -1.86671603e+00
C     6.147905918199999e+00   8.601820025486688e-01   3.725544000000000e+00 -2.51187318e+00  -2.42239937e+00  -3.25217000e-01
C     7.349981754300000e+00   1.495180478877685e+00   3.654261000000000e+00  9.68695630e-01   6.85240040e-01   9.60035410e-01
C     7.439328292199999e+00   3.170756605496480e-02  -3.877713000000007e-01  1.13882649e+00  -5.48870066e+00   9.21478240e-01
C     8.675853341400000e+00   6.496253743307328e-01  -1.785248999999993e-01 -7.51976150e-01  -1.25760910e-01   3.86930940e-01
C     8.528819690299999e+00   7.501285883891801e-01   3.753636600000000e+00  4.24701234e+00   1.83588402e+00  -1.06994313e+00
C     9.820800238900000e+00   1.456075738824106e+00   3.602064600000000e+00 -6.51627930e-01   1.77297601e+00   2.57187380e-01
C     1.208647871200000e+00   2.060271442648619e+00  -2.357280000000017e-01  1.71070704e+00   7.36282500e-01  -2.88499080e-01
C     2.455839813500000e+00   2.806877006093961e+00  -4.737098999999994e-01  1.30692460e+00  -5.11991338e+00   1.12569368e+00
C     2.516090230900000e+00   2.931670203973711e+00   3.574992000000000e+00 -2.67722039e+00  -2.60799175e+00  -1.64136890e-01
C     3.657434826700000e+00   3.697526198035270e+00   3.633958500000000e+00  2.13779422e+00  -2.18774386e+00  -3.99661290e-01
C     3.723178003600000e+00   2.086365804774451e+00  -3.533076000000008e-01  8.73896360e-01  -8.92638420e-01   2.70927270e-01
C     5.031395162099999e+00   2.731667451148636e+00  -2.538780000000003e-01 -3.84814415e+00   1.57189644e+00  -1.10422218e+00
C     4.904472706500000e+00   3.012489205683558e+00   3.628947300000000e+00 -8.72057390e-01  -3.95353412e+00   2.91199890e-01
C     6.142374754000000e+00   3.596326542282073e+00   3.682425600000000e+00  2.07988350e-01   4.08697538e+00  -2.85679020e-01
C     6.201359739000000e+00   1.994019309696814e+00  -1.371960000000030e-01 -6.53500630e-01   3.89172119e+00   5.60902530e-01
C     7.391186152000000e+00   2.687901179883920e+00  -8.026620000000051e-02  5.91435340e-01   3.98447184e+00  -2.22019040e-01
C     7.352652581799999e+00   2.887247965923922e+00   3.705886200000000e+00  1.53505889e+00   2.02322376e+00  -5.35109980e-01
C     8.602936669399998e+00   3.653048968757989e+00   3.689021700000000e+00 -6.00899860e-01  -1.27919897e+00  -3.97540590e-01
C     8.580484167600000e+00   2.059996657291373e+00  -7.987980000000050e-02  4.68344850e+00  -1.40640900e+00  -5.04658140e-01
C     9.864436211199999e+00   2.731031209477771e+00  -2.435009999999984e-01 -2.03293814e+00   2.45447646e+00   2.10457550e-01
C     9.814999748800000e+00   2.931705299306784e+00   3.584179200000000e+00  1.65710090e+00  -2.21742534e+00   5.14317350e-01
C     1.112996361230000e+01   3.581401120473977e+00   3.613485900000000e+00 -2.40466154e+00   1.13577020e+00  -3.22408190e-01
C     2.540435754100000e+00   4.115561995094150e+00  -6.580724999999994e-01 -2.68181759e+00   4.72791175e+00  -1.09994250e-01
C     3.761749189700000e+00   4.874787959858617e+00  -5.828462999999999e-01 -5.01794300e-02   7.23270600e-02   5.56866550e-01
C     3.665523083300000e+00   5.056022821549700e+00   3.631695300000000e+00 -9.00172180e-01   3.19134368e+00   6.98458200e-02
C     4.860365574099999e+00   5.801637603609047e+00   3.690170100000000e+00  2.47943925e+00  -1.73971803e+00   7.83931100e-02
C     4.989841276700000e+00   4.182371725430298e+00  -3.978435000000005e-01  7.54925670e-01  -1.02977957e+00   1.21313021e+00
C     6.203265134699999e+00   4.884981318229012e+00  -1.389062999999986e-01  6.69511930e-01   5.13840320e-01  -1.20678772e+00
C     6.112588532100000e+00   5.118171959965865e+00   3.675790500000000e+00  1.64432587e+00  -1.81516747e+00   4.17197140e-01
C     7.373794788200000e+00   5.835590502469728e+00   3.759720600000000e+00 -4.03492960e-01  -1.13557487e+00  -3.46678710e-01
C     7.475978750299999e+00   4.143174422503116e+00  -1.224726000000018e-01 -3.42908622e+00   3.72815260e-01   3.69709340e-01
C     8.631611669300000e+00   4.910709356805252e+00  -2.205495000000006e-01  1.19276924e+00  -1.65364052e+00  -7.50546400e-02
C     8.633282396999999e+00   5.061984502496522e+00   3.699747000000000e+00 -3.49590425e+00   3.58258000e-01   6.49666570e-01
C     9.818606980500000e+00   5.738191218720761e+00   3.732738600000000e+00  2.72372288e+00   3.27267000e-01  -1.34955960e-01
C     9.867112067299999e+00   4.202654266243233e+00  -4.103337000000025e-01 -2.43462650e-01  -2.39734711e+00   4.10473290e-01
C     1.107637919580000e+01   4.803236431612819e+00  -6.535440000000001e-01  2.57420354e+00   4.40582198e+00  -1.05959710e-01
C     1.105754132070000e+01   5.000273671488296e+00   3.673784400000000e+00  1.58797603e+00   1.71287435e+00  -5.80760380e-01
C     1.231320014360000e+01   5.784099927714909e+00   3.599781000000000e+00 -2.37153551e+00  -3.77878310e-01   1.08931014e+00
C     3.728333156700000e+00   6.299148191348012e+00  -4.150559999999999e-01 -1.72414271e+00   5.13619950e-01  -9.30816820e-01
C     4.903825890500000e+00   7.056320353311830e+00  -2.030928000000003e-01  1.99943770e+00  -1.55886399e+00   9.79024400e-02
C     4.968801663600000e+00   7.177041211703563e+00   3.764106000000000e+00 -3.39399094e+00   1.97025752e+00  -7.50033860e-01
C     6.131887953800000e+00   7.912738103870600e+00   3.634907100000000e+00  2.19423680e+00  -2.90365900e-02   1.10643819e+00
C     6.179723941000001e+00   6.332934237943913e+00  -1.847028000000002e-01 -3.83659640e-01  -2.33204950e-01   1.04854274e+00
C     7.411474679600000e+00   7.051478478199355e+00  -8.409029999999973e-02 -1.15784171e+00   1.88003970e-01   1.63067440e-01
C     7.392839723300000e+00   7.285715063329903e+00   3.798344400000000e+00 -1.21772692e+00  -4.22244488e+00  -4.12065360e-01
C     8.638964616399999e+00   7.847113417408866e+00   3.885992400000000e+00 -3.44580410e-01   3.85977993e+00  -1.22063562e+00
C     8.614620670800001e+00   6.292971498117303e+00  -1.552004999999994e-01  2.16213700e-02   2.53198437e+00  -1.11696409e+00
C     9.785859455499999e+00   7.053411966342342e+00  -4.081881000000003e-01  4.16006433e+00  -4.20119450e-01  -1.43995850e-01
C     9.832772891799998e+00   7.158361955498354e+00   3.788559900000000e+00  1.70792528e+00   9.00910310e-01   1.62227830e-01
C     1.105602140170000e+01   7.971403923741658e+00   3.734497500000000e+00 -1.43856330e-01  -2.28300332e+00   2.40799770e-01
C     1.109647846070000e+01   6.382888559323276e+00  -6.827544000000003e-01 -2.26990749e+00  -3.61030441e+00   1.49313873e+00
C     1.231433882570000e+01   7.016695245959599e+00  -5.288612999999991e-01  1.73464773e+00   2.71539926e+00   1.15768180e-01
C     1.226857195950000e+01   7.221136234871759e+00   3.719132400000000e+00  2.00480598e+00  -2.34406420e-01  -2.37107150e-01
C     1.357773498780000e+01   7.923074576056640e+00   3.778975500000000e+00 -2.33185823e+00  -2.43787996e+00  -2.57098150e-01
