52
Lattice="8.88768389401873 1.33226762955019e-15 0 4.44384194700937 7.69696003302603 0 0 0 30 " PBC="1 1 1" Properties=species:S:1:pos:R:3:force:R:3 Energy="-417.65527657"
C     1.297629009173593e+01   7.260166630710335e+00  -1.735589999999831e-02  1.50542200e-02  -2.15874128e+00   3.14784290e-01
C     9.204526759027575e+00   7.081228858476900e+00   5.875170000000000e-02  5.85794330e-01   1.05784714e+00  -3.45197030e-01
C     1.056199244588159e+01   6.685523294249781e+00   1.867350000000000e-01  1.13384069e+00  -2.23181950e-01  -4.87894910e-01
C     1.093761231816734e+01   5.317951989421876e+00   1.775655000000000e-01  8.49501010e-01  -1.16575377e+00  -3.80637620e-01
C     6.808092380083922e+00   6.409640771046489e+00  -8.838300000000032e-02  5.38240690e-01   3.89827310e+00  -2.71231750e-01
C     8.200490308657381e+00   6.139168748926686e+00   1.991070000000000e-02 -1.33809399e+00  -4.32194097e+00   3.93593440e-01
C     8.514594476784151e+00   4.679047580336455e+00   1.288092000000000e-01  1.51164661e+00   1.82364872e+00  -7.39148290e-01
C     9.941603979287581e+00   4.295629750979630e+00   1.033317000000000e-01 -2.50552066e+00   2.16091947e+00   3.01497050e-01
C     1.021569095083390e+01   2.958742377311320e+00  -3.657090000000096e-02  9.41991140e-01  -3.33095549e+00   2.75690200e-02
C     4.440165691652244e+00   5.815952230626904e+00   4.942500000000000e-03  6.63408210e-01   4.34454162e+00   3.11180700e-01
C     5.783599236577041e+00   5.461554711488788e+00   2.017290000000000e-02  1.25017472e+00   9.31447650e-01  -8.83553100e-01
C     6.161149202768446e+00   4.145834978507783e+00   2.249070000000000e-02 -1.19909969e+00  -2.72356347e+00   9.92810370e-01
C     7.479238806013781e+00   3.710750689192780e+00   6.529020000000001e-02  2.32524945e+00   7.03079270e-01   1.49794350e-01
C     7.867255353098964e+00   2.334561637006487e+00   7.178400000000000e-02 -9.28590400e-01  -3.04177300e-02  -7.91479700e-02
C     9.197494198037710e+00   1.911603523370747e+00  -4.253010000000046e-02  1.29442890e+00   1.17794710e+00   6.83186000e-02
C     3.474904561884832e+00   4.892719578036473e+00   1.117728000000000e-01 -4.29367269e+00  -1.33068527e+00  -7.79052340e-01
C     3.781740071109081e+00   3.512122399871398e+00  -6.242100000000050e-02 -1.95830514e+00  -2.76871210e-01   1.62438834e+00
C     5.129443392687695e+00   3.154342759526501e+00   1.000827000000000e-01 -2.38383660e-01  -1.04243816e+00  -1.74177910e+00
C     5.421120379333677e+00   1.766939544454899e+00   3.828420000000000e-02  2.47000169e+00  -7.33839370e-01   4.08382040e-01
C     6.855800264099662e+00   1.378207810862962e+00   1.304856000000000e-01 -2.32519798e+00  -1.92614385e+00  -7.17857980e-01
C     1.162778034617623e+01   7.643605241859241e+00   1.104852000000000e-01 -8.01906910e-01   1.63956908e+00   4.60430200e-02
C     2.682949978584178e+00   2.514451292286833e+00  -7.661939999999845e-02  2.08172440e+00   1.64321042e+00  -4.90620350e-01
C     3.077602070478035e+00   1.163509192634143e+00  -1.689699000000005e-01 -2.42596771e+00  -1.35631786e+00  -1.84425920e-01
C     4.413919957894435e+00   7.592593870169219e-01  -9.503850000000114e-02  1.24666409e+00   7.42569560e-01   8.10803810e-01
C     6.697116892088119e-01   5.173859586757856e-01  -1.151054999999985e-01 -2.95653030e-01   1.50902778e+00  -1.46195090e-01
C     2.019071097356315e+00   1.461300958623629e-01  -2.296142999999979e-01  1.41460373e+00  -1.01193949e+00   1.06287975e+00
C     3.468488853811270e-01   4.673654166504234e-01   3.325840500000000e+00  4.52545760e-01  -2.77973800e+00  -2.37506920e-01
C     7.157816964878623e+00   7.514506594303262e+00   3.417708900000000e+00  1.24716664e+00   9.83195560e-01   4.37739900e-01
C     4.095439315163673e+00   2.137381145866748e-01   3.489603000000000e+00  7.87492600e-01  -3.29734290e-01  -6.48266820e-01
C     9.598336432564153e+00   6.900587133232023e+00   3.513621900000000e+00 -7.28154770e-01   2.65437007e+00  -5.15217400e-02
C     1.098376979475330e+01   7.346803843716816e+00   3.426048300000000e+00 -2.48223022e+00  -1.83054020e-01  -4.38813480e-01
C     1.195132056840801e+01   6.366666641989392e+00   3.331595400000000e+00  2.39148054e+00  -8.14787240e-01   2.98662840e-01
C     4.460777519884696e+00   6.704761691905565e+00   3.295967700000000e+00  3.06190140e-01   2.38734127e+00  -3.45620720e-01
C     5.525638877895137e+00   5.756045405260608e+00   3.238554300000000e+00 -1.35240247e+00  -2.03136590e-01   1.00956186e+00
C     6.862409548874696e+00   6.132858858063692e+00   3.461605200000000e+00 -2.00648360e-01   8.90613020e-01  -1.35637100e+00
C     7.893934182250603e+00   5.171252934274095e+00   3.452087100000000e+00 -2.31479650e+00  -6.51280600e-01   9.21327550e-01
C     9.208946692111526e+00   5.555098252790988e+00   3.543626700000000e+00  2.07426980e+00   7.05768600e-02  -1.85174380e-01
C     1.023735779206760e+01   4.594277880742053e+00   3.516758400000000e+00  1.50627547e+00  -9.45527280e-01  -4.92462640e-01
C     1.161743939093924e+01   5.002445054166543e+00   3.379038000000000e+00 -2.55514580e-01  -1.31162912e+00   2.15173100e-02
C     3.783294305157803e+00   4.017748404226147e+00   3.259639500000000e+00 -1.63792700e-02  -2.68803090e-01   9.01602840e-01
C     5.178013519422629e+00   4.383008335176200e+00   3.214351500000000e+00 -1.41463787e+00  -2.05673350e-01  -5.30516400e-02
C     6.159719484997146e+00   3.372545803656978e+00   3.253729500000000e+00 -7.30674800e-02   2.83849890e-01   1.24543842e+00
C     7.503713310020544e+00   3.797350802851916e+00   3.465558900000000e+00  8.42754960e-01  -6.01431350e-01  -1.46077168e+00
C     8.528427266786746e+00   2.825927791392057e+00   3.397603200000000e+00  1.19979400e+00  -1.38405879e+00   3.88671300e-01
C     9.931748203718300e+00   3.200253586713445e+00   3.454170900000000e+00 -8.62874370e-01   3.65295110e-01   4.16982490e-01
C     2.088579408055435e+00   2.231732175245695e+00   3.478631400000000e+00 -1.81880010e-01  -5.46268630e-01  -1.02627835e+00
C     3.471505643463797e+00   2.628302108084182e+00   3.417567000000000e+00 -1.00208298e+00  -2.62994870e-01  -6.78124440e-01
C     4.471959778246596e+00   1.599522274115966e+00   3.356420400000000e+00 -1.88917567e+00  -1.70601780e-01   9.58182070e-01
C     5.792200290405074e+00   1.987894636644103e+00   3.353078700000000e+00  2.41608440e+00   4.45405130e-01  -1.11057234e+00
C     6.845633286755263e+00   1.016031359070527e+00   3.277679100000000e+00 -2.61842260e-01   2.39653020e-01   1.35673549e+00
C     8.210320572785175e+00   1.402213166774126e+00   3.320295300000000e+00 -5.93980590e-01   2.18834561e+00  -5.45603200e-02
C     1.714522699820863e+00   8.416446453636300e-01   3.340933800000000e+00  4.24506390e-01   1.69280490e-01   9.67459520e-01
