64
Lattice="9.86 0 0 4.93 8.53901048131456 0 0 0 30 " PBC="1 1 1" Properties=species:S:1:pos:R:3:force:R:3 Energy="-515.32299525"
C     9.867946124700000e+00   3.173283298697512e-01  -1.081452000000027e-01  8.41201820e-01   4.36797550e-01  -1.68586870e-01
C     1.233689806200000e+00   1.025713794747242e+00  -2.439497999999993e-01  9.16793510e-01   8.42171300e-01   8.07765540e-01
C     1.223465577800000e+00   3.845570694501536e-01   3.776378700000000e+00  3.02615870e-01   1.36706360e-01  -6.77583000e-01
C     2.449114652600000e+00   1.145540533351614e+00   3.651591000000000e+00 -2.67228090e-01  -1.72666268e+00   2.81237600e-02
C     2.490461182200000e+00   3.230155670197456e-01  -7.734089999999938e-02 -1.27758950e+00  -5.57147770e-01  -3.43107210e-01
C     3.700947302500000e+00   1.003128538978166e+00  -1.467084000000014e-01  1.17129073e+00   1.27671010e+00  -2.43208440e-01
C     3.682221584900000e+00   4.048320105437608e-01   3.626056500000000e+00 -8.85528900e-02   1.48940743e+00  -3.06109040e-01
C     4.917597401799999e+00   1.155142138295746e+00   3.606210600000000e+00 -2.96996880e-01  -2.51478802e+00  -3.32172700e-02
C     4.951464086100000e+00   3.419814778067688e-01  -1.109192999999991e-01  5.18824200e-01  -1.91938711e+00   5.17735220e-01
C     6.211288463199999e+00   1.026810203692874e+00  -5.551019999999696e-02 -1.17361815e+00  -8.76410000e-01  -7.38737480e-01
C     6.147619386599999e+00   4.025859946172064e-01   3.616464900000000e+00 -9.84182330e-01  -5.75926850e-01  -3.67519020e-01
C     7.346626100499999e+00   1.113523598946959e+00   3.650361000000000e+00  1.64977114e+00  -6.85262500e-02   7.55114100e-01
C     7.417239673699999e+00   2.877778886422440e-01  -1.120067999999996e-01 -2.88684500e-02   7.97669250e-01   2.53673710e-01
C     8.632181577299999e+00   1.020100163867585e+00  -9.848159999999950e-02  8.74028680e-01  -1.18721506e+00  -1.02038350e-01
C     8.618894438499998e+00   4.118281926102344e-01   3.762307200000000e+00 -2.04072244e+00  -4.06328060e-01  -1.32538857e+00
C     9.843148569799999e+00   1.089963700521696e+00   3.713288400000000e+00  4.67276090e-01   6.79105400e-02   6.70373920e-01
C     1.112413142230000e+01   2.478426529683905e+00  -3.953115000000018e-01 -8.70921200e-02  -1.51471947e+00  -3.86802500e-02
C     2.516194845500000e+00   3.152554423806788e+00  -5.302493999999989e-01 -8.15067360e-01   4.83832930e-01   7.14848240e-01
C     2.436205694100000e+00   2.540187143123230e+00   3.485166900000000e+00 -3.28377930e-01   7.71813800e-01   1.18031270e-01
C     3.684319299900000e+00   3.260358064875111e+00   3.432987300000000e+00 -6.93800630e-01  -6.73476660e-01   7.59312760e-01
C     3.722374315000000e+00   2.414076461316520e+00  -3.228267000000002e-01  3.99144430e-01   1.30779312e+00  -4.02366050e-01
C     4.963750139099999e+00   3.151748170437267e+00  -2.615207999999996e-01  4.06681870e-01  -1.27278536e+00   3.03507070e-01
C     4.907447320600000e+00   2.545816144221750e+00   3.577470300000000e+00 -3.44489620e-01   8.33871710e-01  -1.76513090e-01
C     6.127631145300000e+00   3.256321503841006e+00   3.651837000000000e+00 -1.10315130e-01   6.84233480e-01  -5.18968160e-01
C     6.228312936400000e+00   2.426842623544539e+00  -1.051119000000007e-01 -1.77630538e+00   6.67290540e-01   1.47972330e-01
C     7.433623493399999e+00   3.115181651248867e+00  -4.951739999999916e-02  4.92873470e-01   2.08533773e+00   1.83795800e-02
C     7.326748981400000e+00   2.523804112226197e+00   3.683013300000000e+00  1.83142995e+00   1.14597567e+00   5.88602600e-02
C     8.604369426000000e+00   3.248336077410424e+00   3.668478000000000e+00 -1.20010690e+00  -7.13996910e-01  -4.51940250e-01
C     8.676999418499999e+00   2.406912146133695e+00  -9.974940000000032e-02 -5.96894910e-01   2.13538155e+00  -4.29978790e-01
C     9.883537298999999e+00   3.173727498022682e+00  -3.077100000000002e-01  2.59300640e-01  -1.25172318e+00   1.71570670e-01
C     9.825622321199997e+00   2.508033413770685e+00   3.636915300000000e+00 -3.72988040e-01   7.95720910e-01  -1.67432370e-01
C     1.101848171950000e+01   3.234649836803185e+00   3.474530100000000e+00  2.00929191e+00  -2.73657550e-01  -2.46152300e-01
C     1.234555006410000e+01   4.607303456572616e+00  -5.753346000000015e-01  9.26024120e-01  -9.27017940e-01   6.43547450e-01
C     3.725037747500000e+00   5.285944046953970e+00  -4.345362000000002e-01  6.37002700e-01   1.06267416e+00   4.61834330e-01
C     3.668614242600000e+00   4.675391562167726e+00   3.470547600000000e+00  1.10841520e-01  -7.54247590e-01  -9.99959220e-01
C     4.882042241800000e+00   5.396333727346161e+00   3.557658000000000e+00  5.79801000e-01   8.12121880e-01   3.35141080e-01
C     4.952219855099999e+00   4.557193981372833e+00  -2.665713000000025e-01  2.76896320e-01   1.26284524e+00   4.75868060e-01
C     6.176930110000000e+00   5.304838059272752e+00   1.776240000000000e-02 -7.64768470e-01  -5.46191100e-01  -9.66275260e-01
C     6.124830362999999e+00   4.695685886815123e+00   3.603235800000000e+00  2.57538400e-02  -5.27427230e-01   5.88497890e-01
C     7.365583330899999e+00   5.396066883268661e+00   3.669007200000000e+00  4.18960400e-01  -1.09983473e+00  -5.22765110e-01
C     7.389401097599999e+00   4.586267518865031e+00   1.064430000000000e-02  1.72682517e+00  -1.08547516e+00  -2.18982790e-01
C     8.657721590200000e+00   5.285445454132043e+00  -6.238199999999949e-02 -3.59430770e-01  -4.00832770e-01  -1.05838520e-01
C     8.602821800399999e+00   4.672017799127078e+00   3.572625000000000e+00  4.39464700e-02  -5.80359290e-01   2.64759750e-01
C     9.844275764999999e+00   5.361645363512838e+00   3.434306700000000e+00 -1.06949057e+00   1.03937820e+00   1.32669330e-01
C     9.884602721299999e+00   4.570827023944782e+00  -3.287867999999996e-01 -1.60989890e-01   1.64892619e+00   7.04552780e-01
C     1.113700089150000e+01   5.326826096648857e+00  -4.189992000000018e-01 -1.57279437e+00  -2.01634649e+00  -1.47485000e-01
C     1.106405695660000e+01   4.650552093022035e+00   3.325113900000000e+00 -7.95270780e-01  -4.90136690e-01   5.50854020e-01
C     1.229362957190000e+01   5.320080107589447e+00   3.311661000000000e+00  5.58996870e-01   2.96811590e+00   8.27576450e-01
C     1.360917611210000e+01   6.733591355483793e+00  -2.784762000000001e-01 -1.85454820e-01  -7.75076240e-01   3.48649060e-01
C     4.994686579300000e+00   7.448922707656029e+00  -5.061990000000094e-02 -2.27716938e+00  -5.82988580e-01  -8.22884680e-01
C     4.881780113700000e+00   6.837793071151443e+00   3.667543500000000e+00  6.11263370e-01  -1.59714194e+00  -2.49482110e-01
C     6.158784505500000e+00   7.471998700357391e+00   3.777835800000000e+00 -1.34119257e+00   2.17190673e+00  -2.55523330e-01
C     6.185145954999999e+00   6.737944457636392e+00   3.130770000000000e-02  1.54429657e+00  -5.22992480e-01   2.70769030e-01
C     7.445622521799999e+00   7.448712221047697e+00   7.262399999999999e-02 -9.43549350e-01  -8.23034630e-01  -2.97838510e-01
C     7.381181259300000e+00   6.791289449297152e+00   3.702336600000000e+00 -2.12483510e-01   6.34609350e-01  -3.92305440e-01
C     8.580708975600000e+00   7.540747896143863e+00   3.558168300000000e+00  9.04835110e-01  -1.13048657e+00   8.76642070e-01
C     8.667210311900000e+00   6.704896864666801e+00   2.215290000000000e-02 -9.28904500e-02   4.87022810e-01  -4.01287790e-01
C     9.891126048000000e+00   7.417753696992039e+00  -1.055208000000007e-01 -1.55654560e-01   1.09737662e+00   1.61966830e-01
C     9.799078708200000e+00   6.795977280660568e+00   3.492819600000000e+00  1.70523263e+00   3.20020770e-01  -3.47459900e-01
C     1.107525175410000e+01   7.499068217480039e+00   3.505405200000000e+00 -8.65766300e-01   3.28314280e-01  -7.81751600e-02
C     1.110854409340000e+01   6.706447975920493e+00  -2.506788000000029e-01  8.84621830e-01   1.23865533e+00  -2.30662780e-01
C     1.235402853020000e+01   7.428115444649100e+00  -2.512232999999995e-01  3.05083410e-01  -6.33984710e-01   2.38232220e-01
C     1.231971055370000e+01   6.798066691134919e+00   3.432419400000000e+00 -1.76858471e+00  -1.14847252e+00  -1.64568100e-02
C     1.349998982450000e+01   7.533090880056341e+00   3.599957100000000e+00  1.63781658e+00   1.20029610e-01   5.81354110e-01
