52
Lattice="8.88768389401873 1.33226762955019e-15 0 4.44384194700937 7.69696003302603 0 0 0 30 " PBC="1 1 1" Properties=species:S:1:pos:R:3:force:R:3 Energy="-416.81806751"
C     1.269572679710212e+01   6.823508851856399e+00  -7.003920000000008e-02 -1.97803648e+00   2.68517782e+00   2.10956710e-01
C     8.845725760757306e+00   6.564157166679139e+00   3.631800000000000e-03  9.17549820e-01   1.36747583e+00  -5.44490960e-01
C     1.023140308934339e+01   6.200907219871320e+00   1.606770000000000e-01  8.53046070e-01   2.84129430e-01  -3.01257420e-01
C     1.061642946402979e+01   4.777252554572024e+00   1.814160000000000e-01 -1.72753026e+00   2.61594379e+00  -7.36876200e-01
C     6.485043823455283e+00   6.039958243832799e+00  -2.091422999999999e-01  9.35856560e-01  -2.47404235e+00  -5.38335270e-01
C     7.799125258983715e+00   5.549161664489449e+00  -1.615266000000020e-01  2.47939036e+00   3.02984691e+00   1.64737312e+00
C     8.172590090148459e+00   4.228113941836477e+00   7.521870000000000e-02 -2.37182300e-01  -3.66077330e-01  -1.07763174e+00
C     9.535586093871293e+00   3.842707756795102e+00   5.795850000000000e-02  1.41219070e+00  -8.18317520e-01   2.04175840e-01
C     9.898791471544083e+00   2.472474073492820e+00  -1.543841999999991e-01  1.56851858e+00   1.49302843e+00   4.47346360e-01
C     4.143112810547589e+00   5.503667165870528e+00  -6.397199999998548e-03 -1.28794716e+00  -3.85574797e+00   1.41601650e-01
C     5.486811741648578e+00   5.049573540430233e+00  -8.007299999999873e-02 -1.35575668e+00   1.48766740e-01  -5.12838070e-01
C     5.773655739101494e+00   3.648405466888981e+00  -8.001270000000105e-02  1.73632685e+00   1.26521545e+00   1.29812465e+00
C     7.148637095619383e+00   3.263697627031127e+00   3.801990000000000e-02  4.26392300e-02  -1.48428967e+00  -1.64607530e-01
C     7.516992352826488e+00   1.864360044524209e+00   6.054390000000000e-02  3.46514980e-01   1.36737192e+00  -1.20251161e+00
C     8.893026677710953e+00   1.506908910433392e+00  -1.847981999999995e-01 -4.84441890e-01  -1.62738669e+00   4.86018400e-01
C     3.079143996903641e+00   4.469399091522521e+00   8.276610000000001e-02  1.85311011e+00  -6.55563690e-01  -2.72218060e-01
C     3.441245302015874e+00   3.054028356425111e+00  -4.735020000000034e-02 -2.73894160e-01   3.36356985e+00   6.15831840e-01
C     4.777116716651341e+00   2.679459183227574e+00   2.463510000000000e-02  1.49871390e-01   7.40209430e-01  -9.40225590e-01
C     5.106606532199352e+00   1.351086417653252e+00   1.784370000000000e-02  1.40704410e+00  -3.31728032e+00   1.14909140e-01
C     6.489963864168043e+00   9.059861512208103e-01   2.963670000000000e-02 -5.32930760e-01   4.29643740e-01   5.77611070e-01
C     1.128203580000561e+01   7.251296192154161e+00   8.777760000000000e-02 -2.63155000e-01  -2.73723550e+00  -3.73338170e-01
C     2.448617482656712e+00   2.148993318555208e+00  -1.958750999999985e-01 -3.62553994e+00  -3.98013545e+00  -8.68995290e-01
C     2.754025807558402e+00   7.014275081355137e-01  -3.684350999999992e-01  1.84490051e+00   1.46223348e+00   1.45350269e+00
C     4.123471870119603e+00   3.296854283569960e-01  -8.546760000000120e-02 -1.25879293e+00  -1.67193495e+00  -6.54351450e-01
C     3.516904065132272e-01   1.155252894518763e-01  -2.870999999999988e-01  1.71189782e+00  -6.64518500e-02   1.52982000e-03
C     6.246867094281116e+00   7.375007121628342e+00  -4.175696999999978e-01 -4.22829186e+00   2.78381993e+00   8.52540420e-01
C     6.256442418766542e-01   8.133707093590283e-01   3.420544200000000e+00  1.77935912e+00   3.64954194e+00  -7.92002160e-01
C     3.107129888711079e+00   2.626260489436225e-01   3.532351500000000e+00 -1.94775149e+00   1.53819019e+00  -2.88973410e-01
C     4.468592056435233e+00   6.269892070805798e-01   3.619666800000000e+00 -1.44508697e+00   4.14058136e+00  -1.34818991e+00
C     9.927037289625357e+00   7.438125888415156e+00   3.670530300000000e+00  1.50194286e+00  -3.17391520e+00   4.11189320e-01
C     6.835140442133127e+00   1.182848035618319e-01   3.570246600000000e+00  1.04591237e+00  -5.01869800e-01  -9.70990210e-01
C     1.229825304242529e+01   6.786564521286803e+00   3.432244500000000e+00 -1.27913225e+00   5.71192520e-01   7.13873940e-01
C     4.766180424542187e+00   7.170619966812514e+00   3.334401000000000e+00  3.51906100e-01  -1.60462708e+00   1.11028020e-01
C     5.832065421512712e+00   6.172724338903874e+00   3.288407400000000e+00 -5.90538590e-01   2.14655696e+00   1.03354316e+00
C     7.188576305038051e+00   6.626195280277742e+00   3.517246500000000e+00 -4.99083540e-01  -2.04636297e+00  -1.07949404e+00
C     8.217513689181240e+00   5.643165868849444e+00   3.538921800000000e+00  3.61738940e-01  -2.47738700e-01   1.07835167e+00
C     9.595709721468982e+00   6.038679778771816e+00   3.726153900000000e+00 -1.36820268e+00  -1.84691850e-01  -5.82431560e-01
C     1.057404045577245e+01   5.030434664467637e+00   3.700022700000000e+00  5.16445970e-01  -3.90629670e-01  -1.15538982e+00
C     1.191807351989715e+01   5.419723350087345e+00   3.512032800000000e+00  1.55841693e+00  -2.03762800e-02  -1.78960870e-01
C     4.074687153733131e+00   4.451923297713606e+00   3.332772300000000e+00  1.23418550e-01  -1.20969697e+00   5.82474950e-01
C     5.461339595037884e+00   4.828618063393028e+00   3.284626200000000e+00  3.59892400e-02  -6.35173010e-01  -5.40883900e-01
C     6.518649887920889e+00   3.852725350274147e+00   3.247530900000000e+00 -5.06541430e-01   5.43719970e-01   1.49103470e+00
C     7.857628481791718e+00   4.261704937829803e+00   3.482799300000000e+00  6.51611680e-01   1.64751850e-01  -1.26778712e+00
C     8.883827303887603e+00   3.262849960823023e+00   3.435472200000000e+00  1.53464700e-01   3.79170020e-01   4.75684160e-01
C     1.025261723368105e+01   3.653758009863443e+00   3.502988400000000e+00 -9.42461800e-02  -6.65746480e-01   9.14994270e-01
C     2.385896297865388e+00   2.629216660874947e+00   3.500310600000000e+00 -6.05585790e-01   4.46538450e-01  -1.11374919e+00
C     3.757189443837343e+00   3.036890844009515e+00   3.401025300000000e+00  4.87920120e-01  -3.34328020e-01  -7.85205400e-02
C     4.796566345896349e+00   2.023385396312033e+00   3.366833100000000e+00  6.06591900e-01   1.47389567e+00   1.20518437e+00
C     6.216728510652672e+00   2.490116044668782e+00   3.360454500000000e+00 -3.60214971e+00  -1.35982924e+00  -8.34780200e-01
C     7.177222107774934e+00   1.484682475924362e+00   3.371784900000000e+00  7.00707620e-01   4.54822900e-02   1.07330855e+00
C     8.521991427652987e+00   1.904610758213892e+00   3.399727200000000e+00  1.15400868e+00  -2.43573210e+00  -1.75033490e-01
C     2.017928408552359e+00   1.244919477053851e+00   3.378952200000000e+00  9.13284690e-01  -2.97719620e-01   1.49354609e+00
