64
Lattice="9.86 0 0 4.93 8.53901048131456 0 0 0 30 " PBC="1 1 1" Properties=species:S:1:pos:R:3:force:R:3 Energy="-510.74737084"
C     5.029388208399999e+00   7.683072024099473e+00  -7.106600999999984e-01 -2.11364901e+00  -2.27663210e+00   6.60792060e-01
C     6.196644785600000e+00   8.421123292236054e+00  -6.801047999999987e-01  2.32229318e+00  -1.80429040e-01   1.04099725e+00
C     9.801122242500000e+00   8.232522338544503e-01   3.687083700000000e+00  9.21507890e-01   5.28416110e-01  -1.02192995e+00
C     1.213095273500000e+00   1.584419457261441e+00   3.722366400000000e+00 -3.18842781e+00   1.23002953e+00   6.42030460e-01
C     7.438619999100000e+00   7.640424192427426e+00  -6.957276000000014e-01 -3.62673900e-01   2.76961699e+00   5.23770870e-01
C     8.670525786199999e+00   8.363544403008994e+00  -5.188763999999999e-01 -1.11187670e-01  -1.65601006e+00  -5.60842100e-02
C     2.404685689800000e+00   8.756318049903424e-01   3.681722100000000e+00  4.65271260e-01   5.12322860e-01  -3.69954020e-01
C     3.630428385300000e+00   1.605532843794079e+00   3.857385600000000e+00 -1.41060680e-01  -1.45115245e+00   2.80639800e-01
C     9.892065311600000e+00   7.609688792715610e+00  -4.338596999999993e-01  8.57135140e-01   4.08455138e+00  -7.23317900e-01
C     1.113770459970000e+01   8.348627007870750e+00  -5.772882000000017e-01  4.36198370e-01   1.39560020e-01   9.07127660e-01
C     4.833164003300000e+00   8.750042731101672e-01   3.878344800000000e+00  1.38441314e+00  -5.37760590e-01  -8.66973470e-01
C     6.097509831300000e+00   1.562129224304449e+00   3.822927900000000e+00 -2.63204593e+00   3.13444180e+00  -1.75363260e-01
C     1.238763530490000e+01   7.660772483621057e+00  -4.621463999999982e-01 -3.37971680e-01  -1.01502330e-01  -1.59741470e-01
C     1.362308093060000e+01   8.351869526320320e+00  -5.999709000000024e-01  5.69645380e-01  -1.36118690e+00  -2.93652860e-01
C     7.303582812799999e+00   9.812404080246768e-01   3.707772600000000e+00  1.26605170e+00  -5.65621762e+00  -8.83485900e-02
C     8.554359998999999e+00   1.552925281078371e+00   3.665682000000000e+00  1.68009417e+00   2.31986880e+00   9.20047400e-02
C     1.296486568600000e+00   1.300001156902448e+00  -3.002375999999991e-01  1.08420298e+00  -1.42308154e+00  -1.31574950e+00
C     2.580874374900000e+00   1.959968553776033e+00  -1.533828000000028e-01 -1.96574018e+00   9.95744370e-01   8.83966970e-01
C     1.103874539990000e+01   3.050733896601591e+00   3.970448400000000e+00 -1.97504090e-01  -2.44694720e+00   6.54348840e-01
C     2.421304325400000e+00   3.707168363279181e+00   4.256817000000000e+00 -1.71588440e+00   3.88568260e-01  -1.11266988e+00
C     3.780638188900000e+00   1.218962104892532e+00  -3.392492999999988e-01 -8.38672510e-01   3.88814440e-01  -1.43541200e-02
C     4.989262445400000e+00   1.905010713815810e+00  -3.921770999999978e-01  1.76235673e+00   2.61710484e+00  -1.25946912e+00
C     3.628162951699999e+00   2.979422741500806e+00   4.094755500000000e+00  4.15836270e-01   1.82739840e+00   1.35621460e-01
C     4.852233588400000e+00   3.727372345195699e+00   4.027070699999999e+00  7.59283520e-01  -4.26144310e-01  -1.20457185e+00
C     6.236000433299999e+00   1.238833577740959e+00  -6.660971999999994e-01  5.60119340e-01   8.16327330e-01   1.70240336e+00
C     7.537696878000000e+00   2.007721176693232e+00  -5.600093999999984e-01 -3.17781562e+00  -1.78590408e+00  -1.49770635e+00
C     6.077968494500000e+00   3.001793924277148e+00   3.768946500000000e+00 -4.71394260e-01   1.06792125e+00   1.30906186e+00
C     7.298687520000000e+00   3.759620089053629e+00   3.747016200000000e+00  1.57073879e+00  -2.59296968e+00  -1.08857818e+00
C     8.729185834899999e+00   1.180740640083004e+00  -5.973986999999994e-01 -3.42382420e-01   5.13722369e+00   9.92162570e-01
C     9.931332613699999e+00   1.972390593881708e+00  -3.565326000000013e-01  4.58387400e-01   7.89253210e-01   1.00498802e+00
C     8.561784874799999e+00   2.994937525812232e+00   3.680498100000000e+00 -4.46441730e-01   9.33797560e-01   1.54177130e+00
C     9.761156655199999e+00   3.731168789255107e+00   3.992500800000000e+00  1.35925799e+00  -2.64273092e+00  -1.48794571e+00
C     2.563069975700000e+00   3.393269470798407e+00   1.419987000000000e-01 -8.74532080e-01  -7.46589000e-02  -1.68372205e+00
C     3.784502815900000e+00   4.097125076006362e+00  -1.373870999999980e-01 -1.55275285e+00  -2.09292230e-01  -4.28765120e-01
C     1.220986581530000e+01   5.146631115654028e+00   4.317074700000000e+00  3.78419626e+00  -5.50743970e-01  -8.71637450e-01
C     3.634701068400000e+00   5.870328221783626e+00   4.104016200000000e+00 -9.78273250e-01   7.29826600e-02  -5.40657650e-01
C     4.968615309600001e+00   3.406640280358515e+00  -4.413666000000021e-01 -3.56747700e-01  -2.86969001e+00   1.13931277e+00
C     6.139176909500000e+00   4.111684601215392e+00  -6.001946999999994e-01  3.68842163e+00  -2.63723110e-01  -8.47796200e-01
C     4.865457623199999e+00   5.158545170026248e+00   3.890481300000000e+00  3.41959470e-01  -1.90886480e-01   1.15156837e+00
C     6.141095764099999e+00   5.869115084564732e+00   3.683485200000000e+00 -1.29533697e+00  -2.79714231e+00  -7.29401400e-01
C     7.427032083399999e+00   3.447768424335435e+00  -6.395562000000012e-01  2.02357320e+00  -2.18762310e+00   1.29671596e+00
C     8.720160681099999e+00   4.113709371380408e+00  -4.457397000000007e-01 -1.49805348e+00   1.77794907e+00  -3.07073040e-01
C     7.379367610900000e+00   5.157837713007980e+00   3.638576400000000e+00 -6.30225990e-01   5.88678000e-02   9.81301370e-01
C     8.620679049200000e+00   5.841215148672904e+00   3.735477600000000e+00 -3.95970180e-01   1.10475596e+00  -7.53756000e-01
C     9.957220438099998e+00   3.438079977654722e+00  -8.751120000000157e-02 -2.40913582e+00  -1.43529774e+00  -1.84607254e+00
C     1.114104092790000e+01   4.175686021784878e+00   1.014054000000000e-01  1.64660031e+00  -1.26796307e+00  -4.39630070e-01
C     9.838439778900000e+00   5.100644616274407e+00   3.983612400000000e+00 -2.71366904e+00   2.60445303e+00  -4.20530600e-02
C     1.101838223210000e+01   5.819144966015982e+00   4.148326200000001e+00  7.88809400e-01   2.54838758e+00  -2.44141100e-02
C     3.710668177900000e+00   5.469684083539677e+00  -3.908720999999993e-01  2.33307131e+00   2.97769728e+00   1.05356041e+00
C     5.030345663699999e+00   6.190226964588066e+00  -6.347240999999997e-01 -2.88401526e+00   1.99570459e+00  -2.00814160e-01
C     1.348513060730000e+01   7.288770150499438e+00   3.859276800000000e+00 -3.16279350e-01  -4.50458900e-01  -4.78122690e-01
C     4.879914355200000e+00   7.906094582936950e+00   3.596070000000000e+00 -1.13881310e+00   2.28882686e+00   3.77908680e-01
C     6.237832470600001e+00   5.515408008347037e+00  -7.234452000000005e-01 -1.55793736e+00  -1.88681880e-01   4.57803170e-01
C     7.437703117700000e+00   6.251066560357018e+00  -7.336973999999969e-01  8.99177450e-01  -8.04347800e-01  -2.15762080e-01
C     6.082622660999999e+00   7.200138210370706e+00   3.433758000000000e+00  1.50164020e+00   3.97172572e+00   9.79669850e-01
C     7.305962523800000e+00   8.036850230274466e+00   3.449571000000000e+00  1.49184902e+00  -3.05234016e+00   4.76473430e-01
C     8.664822269199998e+00   5.566231174042739e+00  -5.975438999999980e-01  2.10422242e+00  -1.74331742e+00   2.15348053e+00
C     9.916803952999999e+00   6.264398773589757e+00  -2.734365000000025e-01 -2.40092167e+00  -1.64548908e+00  -1.37193967e+00
C     8.595699429400000e+00   7.306317048524894e+00   3.580513200000000e+00 -2.13962859e+00  -1.71633798e+00   6.29243740e-01
C     9.775673927600000e+00   7.978350664937452e+00   3.801452700000000e+00  2.08728358e+00   1.15600360e+00   5.78276200e-01
C     1.112437363320000e+01   5.611356599605557e+00  -8.634869999999850e-02  1.23472446e+00  -2.29858057e+00   8.83144260e-01
C     1.237484121540000e+01   6.272819945725133e+00  -1.801113000000001e-01  7.36444840e-01  -7.64839000e-01  -1.37323053e+00
C     1.106751052020000e+01   7.292889625325304e+00   4.010537100000001e+00 -2.05925051e+00  -3.76496320e-01  -1.25691671e+00
C     1.224615367190000e+01   8.045898763509808e+00   3.778682400000000e+00  6.54217510e-01  -8.21237360e-01   1.57175350e+00
