64
Lattice="9.86 0 0 4.93 8.53901048131456 0 0 0 30 " PBC="1 1 1" Properties=species:S:1:pos:R:3:force:R:3 Energy="-511.68201721"
C     5.013173290500000e+00   8.343506675626523e+00  -3.136949999999992e-01 -4.76391469e+00  -3.59463275e+00   1.48333350e-01
C     1.211281477200000e+00   4.897429914657280e-01  -3.459341999999985e-01  4.66896745e+00   1.67117120e-01  -2.01821270e-01
C     1.212913455100000e+00   8.394288768681816e-01   3.700589400000000e+00 -1.01256964e+00   4.22590467e+00   9.36065140e-01
C     2.416256301200000e+00   1.664219669630918e+00   3.850150200000000e+00  8.58212150e-01  -3.09024961e+00  -1.26951372e+00
C     7.386441224200000e+00   8.296188859122966e+00  -3.553569000000003e-01  2.09017803e+00   1.68720428e+00   3.20774250e-01
C     3.744048123300000e+00   4.933822323421992e-01  -3.088082999999990e-01 -1.55301113e+00  -3.95241050e-01  -5.81606000e-02
C     3.673337182600000e+00   9.358613738506032e-01   3.625749900000000e+00 -5.35237000e-01   3.97662830e-01   3.19433960e-01
C     4.892772682600000e+00   1.682121021981400e+00   3.592329900000000e+00 -4.73650340e-01  -7.25697100e-02   1.30898100e-01
C     9.907750057299999e+00   8.283588268308153e+00  -3.048543000000024e-01 -1.30956714e+00   5.43086576e+00  -2.65621120e-01
C     6.183914342400000e+00   4.846113877276672e-01  -3.627863999999974e-01  2.04257498e+00   4.51390250e-01   6.20429580e-01
C     6.151935946700000e+00   9.867899963257336e-01   3.517865700000000e+00 -2.33634206e+00  -5.90019680e-01   9.11819170e-01
C     7.359519973199999e+00   1.680248929323765e+00   3.610341600000000e+00  1.04647377e+00  -1.02252346e+00  -8.54087290e-01
C     1.235316366030000e+01   8.357651204926222e+00  -3.372449999999994e-01  1.67843517e+00  -1.71780861e+00   2.42477700e-02
C     8.717065627099998e+00   5.391678941953303e-01  -2.991174000000001e-01 -2.12356865e+00  -2.73546895e+00  -5.32923540e-01
C     8.587709230500000e+00   9.727265876255928e-01   3.538017600000000e+00  4.51738700e-01  -2.25502190e+00   1.78762205e+00
C     9.811914505499999e+00   1.593423673032391e+00   3.756273600000000e+00  1.09829677e+00   2.70333094e+00  -4.16454770e-01
C     1.263471640400000e+00   1.905937367233099e+00  -3.393513000000006e-01  4.94318990e-01  -9.36756630e-01   1.08122595e+00
C     2.433945387700000e+00   2.583898679330769e+00  -1.409994000000019e-01  4.31715035e+00   1.70382748e+00  -6.83829880e-01
C     2.416869494600000e+00   3.055912891847816e+00   3.944585100000000e+00  1.26678248e+00   1.21054484e+00  -2.09279200e-02
C     3.675447025400000e+00   3.824981773992579e+00   3.909685500000000e+00 -1.58930355e+00  -2.23990751e+00  -2.54676430e-01
C     3.744379764400000e+00   1.947859809964869e+00  -2.063780999999985e-01 -2.53905876e+00  -3.70356519e+00  -2.98115410e-01
C     4.941696819400000e+00   2.572830157776278e+00  -2.403210000000016e-01  3.54370064e+00   2.20179725e+00   6.23147670e-01
C     4.844621865600000e+00   3.116668976094274e+00   3.708814800000000e+00  2.54814882e+00  -1.36885829e+00  -2.95084970e-01
C     6.127870447499999e+00   3.785864652373804e+00   3.593174400000000e+00 -4.05242410e-01  -2.38779870e-01   6.33433690e-01
C     6.293101270899999e+00   1.900221780568311e+00  -3.088562999999986e-01 -5.40956343e+00  -1.40369360e-01  -3.76831960e-01
C     7.449137858299999e+00   2.628203847546878e+00  -3.827003999999974e-01  2.28597092e+00  -2.68872680e-01   6.73876220e-01
C     7.390337058100000e+00   3.062878248086457e+00   3.609961500000000e+00 -2.37070536e+00   1.34063122e+00  -4.48515860e-01
C     8.578476080000000e+00   3.784744078028514e+00   3.613517700000000e+00  1.43067026e+00   2.41436410e-01   1.43364980e+00
C     8.687474534600000e+00   1.896074297788070e+00  -3.393636000000022e-01  1.55900611e+00   2.81257140e+00   1.48491000e-03
C     9.990403331399998e+00   2.636950270591437e+00  -2.776721999999978e-01 -6.03570108e+00   4.67609790e-01  -5.36560330e-01
C     9.791499030399999e+00   3.129431551937891e+00   3.869275200000000e+00  1.97910410e+00  -3.91669092e+00  -1.37515948e+00
C     1.108004410850000e+01   3.772343812399562e+00   3.890812200000000e+00 -2.58921060e+00   8.79742380e-01   3.80104070e-01
C     2.505173386800000e+00   4.003088966925048e+00  -9.331620000000029e-02 -2.74506500e-02   1.63658179e+00  -3.28969900e-02
C     3.800577475299999e+00   4.779016980018080e+00  -1.794086999999998e-01 -3.71286374e+00  -5.17764451e+00   1.27855125e+00
C     3.693472091400000e+00   5.212131217952860e+00   3.884443800000000e+00 -3.88275008e+00   1.45638730e-01   2.67148170e-01
C     4.809982157299999e+00   5.912392839039887e+00   3.664888800000000e+00  5.64668833e+00   7.93270160e-01  -8.95132840e-01
C     4.957180914100000e+00   4.002438379716577e+00  -1.420233000000017e-01  2.28211599e+00   4.05105430e-01  -1.68245785e+00
C     6.209810498500000e+00   4.697145630656679e+00  -3.511085999999999e-01 -4.06699000e-02   1.71324946e+00   1.77974881e+00
C     6.114392566999999e+00   5.187889991881397e+00   3.587548800000000e+00  1.28576240e-01   1.09338988e+00  -8.29786890e-01
C     7.394295305800000e+00   5.880439093312784e+00   3.402533100000000e+00 -1.99639262e+00   1.50799371e+00   1.71996676e+00
C     7.477197840700001e+00   4.044436478081200e+00  -3.367478999999989e-01 -2.16971662e+00  -3.29774430e-01  -7.61418610e-01
C     8.669600228000000e+00   4.761111785112884e+00  -3.376638000000014e-01 -2.97009400e-01   1.63791544e+00   6.56072040e-01
C     8.614999590600000e+00   5.195963967850656e+00   3.614365200000000e+00 -1.22258743e+00   5.27549200e-01  -1.75798397e+00
C     9.820270411799999e+00   5.918081613211768e+00   3.586809300000000e+00  1.06140049e+00  -1.71012040e-01   7.99067380e-01
C     9.845929089799998e+00   4.053603191221584e+00  -2.170412999999982e-01  4.68348281e+00  -4.42402270e-01   4.12045890e-01
C     1.114637962490000e+01   4.749854551426785e+00  -6.224759999999918e-02 -2.08082880e+00   7.08519200e-01  -4.33635390e-01
C     1.103807516640000e+01   5.199866637200435e+00   3.816579300000000e+00  1.41112605e+00   7.02913280e-01   1.93882700e-02
C     1.229379965690000e+01   5.912906033569735e+00   3.902508300000000e+00 -8.89309750e-01   1.56411691e+00  -1.10543926e+00
C     3.696719975400000e+00   6.106293700366059e+00  -1.885833000000012e-01  8.30395780e-01   5.44039868e+00  -1.14266298e+00
C     4.929261880399999e+00   6.842392950706913e+00  -2.904111000000000e-01  1.90572585e+00   1.73246576e+00   6.29848970e-01
C     4.874711627600000e+00   7.328479708665315e+00   3.498855600000000e+00  7.20000830e-01  -9.28058540e-01   1.53647231e+00
C     6.130002376700000e+00   8.007929370289649e+00   3.554632500000000e+00 -2.27442070e-01  -3.08257450e-01  -6.85355450e-01
C     6.206688575999999e+00   6.170410568357235e+00  -2.524607999999979e-01 -1.32082403e+00  -1.58398171e+00  -1.33568768e+00
C     7.444315332300000e+00   6.882341601166231e+00  -3.445694999999986e-01 -1.75051762e+00   5.94673070e-01   3.01903830e-01
C     7.354460955100000e+00   7.349616919037193e+00   3.470203800000000e+00  1.07528484e+00  -2.69741877e+00  -5.07123960e-01
C     8.596659399000000e+00   8.023970157646644e+00   3.478072500000000e+00 -1.29848663e+00   2.29892766e+00   3.88443930e-01
C     8.657111946400001e+00   6.214611731425698e+00  -3.040509000000000e-01  8.17166300e-01  -1.04774751e+00   1.70937470e-01
C     9.875264216700000e+00   6.968408337156666e+00  -2.135240999999972e-01 -3.25549890e-01  -5.79837471e+00   2.87783600e-01
C     9.807724153399999e+00   7.348733558403037e+00   3.506192100000000e+00  9.12953100e-01  -5.49249600e-01   5.22635980e-01
C     1.099720339580000e+01   8.108085217401770e+00   3.640391400000000e+00  3.14312075e+00  -1.15063350e+00  -9.25188120e-01
C     1.106108850500000e+01   6.205120279716759e+00  -5.355210000000099e-02  3.24161852e+00  -3.64752700e-02  -1.80817689e+00
C     1.234076387220000e+01   6.907937370470136e+00  -2.933550000000018e-01 -9.29186010e-01  -8.58998910e-01   1.83708864e+00
C     1.229652170710000e+01   7.373647743890428e+00   3.715600800000000e+00 -1.01077733e+00  -1.23178952e+00   6.81474790e-01
C     1.356839288430000e+01   8.037874143021122e+00   3.668735100000000e+00 -3.07623707e+00   2.15931730e+00  -1.52633371e+00
