76
Lattice="10.7446858958278 0 0 5.37234294791388 9.3051709414712 0 0 0 30 " PBC="1 1 1" Properties=species:S:1:pos:R:3:force:R:3 Energy="-604.35651492"
C     2.897486675361005e-01   2.943030159732260e-02  -2.790788999999982e-01  2.33223575e+00   4.69180911e+00  -2.91709900e-01
C     1.270123614810787e+01   8.708051234953704e+00  -5.914221000000026e-01  8.24968730e-01  -3.33306771e+00   1.21536293e+00
C     1.417455177659023e+01   8.569888429043422e+00  -4.946385000000006e-01 -1.34809566e+00  -1.25165424e+00  -1.41994890e+00
C     1.463544722720791e+01   7.153723669686531e+00  -4.253967000000003e-01  2.80214642e+00   4.00640495e+00   6.93582600e-01
C     8.417753542742908e+00   9.008634683001175e+00  -8.062499999999773e-02  1.35260901e+00   7.96399920e-01  -7.99290630e-01
C     9.837526306171817e+00   8.927245795702241e+00  -3.303375000000024e-01 -1.02067580e+00  -1.42641930e+00   1.30850460e+00
C     1.045100951253315e+01   7.637106363384916e+00  -1.699944000000002e-01 -6.02564830e-01   1.54659218e+00  -9.49662740e-01
C     1.183259319099571e+01   7.521051620059271e+00  -2.880566999999985e-01  2.16135885e+00  -9.87094600e-02   2.99751420e-01
C     1.241810749644848e+01   6.239710506020844e+00   4.724580000000000e-02  3.76025690e-01   1.04842890e+00  -4.75180290e-01
C     1.382614228148936e+01   6.166790347846115e+00   3.744960000000000e-02 -1.13045210e-01  -5.30555122e+00  -6.62392080e-01
C     6.179347243573641e+00   8.050108373109808e+00  -3.230730000000008e-01  2.10286014e+00   4.59797300e-01   8.48229200e-02
C     7.609364044263041e+00   7.876174256865140e+00  -2.256512999999991e-01 -5.50502250e-01  -1.00700859e+00   6.62961600e-01
C     8.171576886638775e+00   6.552741760389879e+00  -1.177130999999996e-01  1.49155913e+00   3.26184687e+00   7.56535280e-01
C     9.652153881299215e+00   6.512930144833346e+00   5.848770000000000e-02 -2.31707054e+00  -1.64580943e+00  -1.06118490e+00
C     1.025184655192505e+01   5.245668126633977e+00   1.174071000000000e-01 -3.20334163e+00  -2.60036917e+00   5.31283250e-01
C     1.162801995869638e+01   5.067839331092372e+00   1.785528000000000e-01 -3.36519710e-01  -3.42031820e-01   6.42350930e-01
C     1.213185300076706e+01   3.730832358198130e+00   3.573600000000000e-01  1.25781466e+00  -6.44235830e-01  -1.17072797e+00
C     5.351325968315594e+00   6.973066288282585e+00  -4.270503000000012e-01 -1.73480614e+00  -3.94264924e+00   1.01232428e+00
C     5.910369235797689e+00   5.589443293581935e+00  -1.943510999999987e-01 -1.84334129e+00   2.80859975e+00  -9.12011630e-01
C     7.289417060940982e+00   5.485321873676583e+00  -2.083469999999821e-02  1.00331413e+00  -1.72008914e+00  -8.02384140e-01
C     7.883167866540687e+00   4.193140700751602e+00  -3.763770000000122e-02 -1.78130640e-01  -2.55244686e+00   2.28037630e-01
C     9.285215175363795e+00   3.979174436399123e+00   8.917079999999999e-02  1.47401171e+00   4.94312728e+00  -7.84292620e-01
C     9.926511162347571e+00   2.792046875404264e+00  -1.735752000000019e-01  5.36600970e-01  -1.21834426e+00  -1.65720270e-01
C     1.135142402234075e+01   2.571986654603179e+00   3.797100000000000e-03 -1.18383132e+00   9.76755190e-01   8.10289050e-01
C     3.667491965378573e+00   4.746087456621787e+00   1.252833000000000e-01 -2.66603112e+00  -4.23165580e-01   8.39131580e-01
C     4.999337794405442e+00   4.482474011029193e+00  -1.307189999999991e-01  2.14607626e+00  -3.51954920e-01   1.68611841e+00
C     5.574462472103779e+00   3.132779251454842e+00   2.855100000000000e-03  1.82889891e+00   2.11052396e+00  -1.57120505e+00
C     7.025246977764705e+00   2.993032240192025e+00  -2.159933999999986e-01 -2.40451890e-01   1.34850444e+00   6.56126450e-01
C     7.600997264799568e+00   1.722882641346555e+00  -4.899251999999983e-01  1.81015471e+00   2.18112884e+00  -1.73805550e-01
C     9.151164581522256e+00   1.709107452390398e+00  -5.526488999999977e-01 -2.79491322e+00  -2.94189000e+00   7.96551340e-01
C     9.759576242415363e+00   3.964350833833156e-01  -5.524154999999986e-01 -5.30661474e+00  -2.11767307e+00   2.17269200e-02
C     2.799711215586454e+00   3.533174894745351e+00   4.437996000000000e-01  7.59144740e-01   5.22222240e-01  -1.72285541e+00
C     3.321181981902564e+00   2.157783161206515e+00   2.902521000000000e-01  1.66836513e+00   1.14076085e+00  -6.66873430e-01
C     4.764397769645242e+00   2.020695660850058e+00  -2.681700000000120e-03 -2.69079076e+00  -5.91541150e-01  -1.19761000e-02
C     5.251757381634621e+00   7.576856405117219e-01  -4.212074999999977e-01  2.31077850e+00   7.43913280e-01   7.10772840e-01
C     6.701114187156584e+00   6.261983642337957e-01  -6.205970999999977e-01 -9.10152100e-02   1.06387109e+00   5.16164770e-01
C     1.125221919700093e+00   1.257148041801265e+00  -5.544539999999998e-02 -2.35661150e-01  -2.31840833e+00   1.96746350e-01
C     2.497097344664559e+00   9.882454439946661e-01   1.226496000000000e-01  1.75995520e-01   2.30386518e+00  -1.92319260e-01
C     1.583847319038308e+01   9.255192494674423e+00   2.990589600000000e+00  6.11054220e-01  -2.50806372e+00   1.70643229e+00
C     1.168418667604661e+01   8.694379054239853e+00   3.392783400000000e+00 -2.92529601e+00  -1.61213778e+00   1.64345610e+00
C     1.306003591564433e+01   8.870801280142167e+00   3.248866800000000e+00 -6.55373640e-01   2.33268249e+00   1.64193230e-01
C     1.393040753154751e+01   7.800986986842590e+00   3.340557300000000e+00 -1.26462930e+00  -3.64663612e+00   9.18812000e-01
C     7.370886868904559e+00   8.189154332794006e+00   3.491012100000000e+00 -2.12710294e+00  -2.71480940e-01  -4.07127980e-01
C     8.766482853419591e+00   8.302828906444910e+00   3.534136200000000e+00  4.51435110e-01   2.73462780e-01   9.88789600e-01
C     9.662889380492771e+00   7.193417388727255e+00   3.725427600000000e+00  1.17268047e+00   2.07429437e+00  -9.92935300e-01
C     1.110204367696525e+01   7.354159936337124e+00   3.680004900000000e+00  5.09426000e-02   5.48317670e-01  -1.19988816e+00
C     1.193077146904465e+01   6.170388006086648e+00   3.709649700000000e+00 -8.19159430e-01   1.92189912e+00  -8.10638570e-01
C     1.334373296118783e+01   6.449754268615275e+00   3.638345700000000e+00 -7.24397260e-01   6.23543180e-01  -2.99936790e-01
C     4.573539645386394e+00   7.902963844001400e+00   3.281641800000000e+00  1.30458530e-01   3.25233570e-01  -5.61285190e-01
C     5.355682454937178e+00   6.709566086620332e+00   3.554486400000000e+00  4.62609590e-01   2.03797980e-01   1.91651011e+00
C     6.770522225622539e+00   6.910854893032447e+00   3.667811100000000e+00  1.32975970e+00  -1.45979369e+00   3.24978060e-01
C     7.697584254866721e+00   5.766181709192791e+00   3.934684500000000e+00 -1.72743404e+00   1.59180453e+00  -1.60768205e+00
C     9.110703855062921e+00   5.954801990628642e+00   3.723711000000000e+00 -1.49089620e+00  -4.37347346e+00   1.55385043e+00
C     9.900191570724656e+00   4.704451469250756e+00   3.662734800000000e+00  8.05348620e-01   3.45362127e+00  -7.56998360e-01
C     1.129791059772667e+01   4.843622211277260e+00   3.611729700000000e+00  4.32832580e-01   3.44581614e+00   1.21358911e+00
C     1.215623854892797e+01   3.782804808604440e+00   3.599893200000000e+00  4.75710940e-01  -9.22754460e-01  -1.05407354e+00
C     3.386786294113060e+00   5.296224795281765e+00   3.826211100000000e+00  6.61423240e-01   6.06810000e-01  -4.22973690e-01
C     4.776516700871851e+00   5.411551688136485e+00   4.002206400000000e+00  2.45628509e+00   6.06840240e-01  -2.33231853e+00
C     5.702090322501736e+00   4.216978129355438e+00   4.008334500000000e+00 -6.27135730e-01   5.55587086e+00   3.01965460e-01
C     7.097790960257433e+00   4.474553821731903e+00   3.973323900000000e+00  1.38781885e+00  -1.14237614e+00  -3.57961160e-01
C     7.949066475697984e+00   3.346299146757330e+00   3.706121400000000e+00 -3.01121570e-01  -1.65901223e+00  -2.28649886e+00
C     9.346873609124376e+00   3.484998302720594e+00   3.358403700000000e+00 -1.66493137e+00  -6.34637750e-01   1.11003039e+00
C     1.019632634232542e+01   2.404566716326767e+00   2.985421500000000e+00 -4.66463200e-02  -1.90136229e+00   2.16676883e+00
C     1.159610501816761e+01   2.512447332240170e+00   3.338807700000000e+00  1.06773836e+00  -2.16178657e+00  -1.81982917e+00
C     2.792631219706367e+00   4.056597645946845e+00   3.638213700000000e+00  1.75406441e+00  -4.61647030e+00   1.69584955e+00
C     3.693079682721409e+00   2.846360879025916e+00   3.727680900000000e+00 -5.51376740e-01   7.71808350e-01  -6.81816270e-01
C     5.130598691723335e+00   3.019324000682995e+00   3.819315300000000e+00 -1.97822224e+00  -4.06841561e+00  -8.10751600e-02
C     5.911886868957635e+00   1.827916805469412e+00   3.646424100000000e+00  1.41484587e+00  -6.46878150e-01  -9.59446570e-01
C     7.368536952374799e+00   2.022679616346176e+00   3.406316400000000e+00 -2.42337320e+00   1.97784736e+00   2.23710622e+00
C     8.181078519827006e+00   9.349737125700036e-01   3.205041600000000e+00  1.67765256e+00  -2.39569639e+00  -1.64092829e+00
C     9.579696715868559e+00   1.059605404157885e+00   2.918771700000000e+00  1.20014416e+00   1.65277627e+00   8.23342920e-01
C     1.766396169392621e+00   1.309049586805012e+00   3.254602500000000e+00 -1.19355351e+00   2.68636706e+00   1.73207760e+00
C     3.178930613994707e+00   1.510405669603023e+00   3.557369400000000e+00 -1.70145417e+00  -5.95102310e-01  -4.23825270e-01
C     3.947045430251599e+00   2.740960928633408e-01   3.579389400000000e+00  1.15329571e+00   2.71896350e+00  -3.21130570e-01
C     5.347675515004497e+00   4.775341146074668e-01   3.532531200000000e+00  2.28027554e+00   1.09642919e+00  -5.47202700e-02
C     1.128890370360071e+00   4.646192817564220e-02   3.274206600000000e+00  1.30306235e+00   6.94107700e-02  -1.27905293e+00
