52
Lattice="8.88768389401873 1.33226762955019e-15 0 4.44384194700937 7.69696003302603 0 0 0 30 " PBC="1 1 1" Properties=species:S:1:pos:R:3:force:R:3 Energy="-415.13674425"
C     1.232274261076679e+01   6.427587387900439e+00  -1.537392000000004e-01  5.05520750e-01   1.20035503e+00   3.58041800e-02
C     8.628737357811662e+00   6.295041656795023e+00   1.140837000000000e-01 -2.51889844e+00   1.68789060e+00  -1.74194365e+00
C     9.938270121229927e+00   5.906330243177565e+00   8.287560000000001e-02  1.24804642e+00  -2.61987472e+00   6.34142830e-01
C     1.035306237138760e+01   4.544279659900778e+00   2.420910000000000e-02 -3.10154889e+00  -8.18723470e-01  -1.10418707e+00
C     6.207981343082961e+00   5.627378480192711e+00  -2.756541000000006e-01  3.45418950e-01   5.16672456e+00   8.84524110e-01
C     7.600101887056617e+00   5.379081092040936e+00  -9.313229999999706e-02 -1.84645508e+00  -3.59122119e+00   2.85989960e-01
C     7.917664697408268e+00   3.979134141208443e+00  -9.305640000000182e-02  1.32248580e+00  -1.04403696e+00  -9.65748490e-01
C     9.303206844314746e+00   3.604116312210757e+00  -2.173949999999998e-01 -5.29045010e-01  -1.78016627e+00   2.20851826e+00
C     9.590877040836126e+00   2.163001170053005e+00  -1.682448000000001e-01  8.86073800e-01   1.02146148e+00  -6.30659980e-01
C     3.756149186173302e+00   5.033272379691497e+00  -2.257616999999996e-01  3.46554319e+00   3.26812303e+00   4.31720400e-01
C     5.169215556912345e+00   4.707584598434882e+00  -2.622047999999992e-01  1.43499260e-01  -2.68234946e+00   1.04793080e-01
C     5.573565800545671e+00   3.288201438073834e+00  -1.621583999999991e-01 -8.98556640e-01   1.51728200e-01  -3.16991940e-01
C     6.951866573675899e+00   2.895304571531263e+00  -1.288115999999988e-01 -5.82057970e-01   1.76197906e+00  -8.27683600e-02
C     7.295702533022386e+00   1.521666907655714e+00  -1.416456000000004e-01 -1.78278633e+00  -9.41351680e-01   9.77269300e-02
C     8.661541040242167e+00   1.131376308748901e+00  -2.753163000000001e-01 -3.39989877e+00   1.86059751e+00   1.10688836e+00
C     2.775418198261017e+00   4.103331903404522e+00  -8.378130000000183e-02 -6.63602700e-02  -1.95270430e+00  -3.72147390e-01
C     3.085542772663290e+00   2.724044593897353e+00  -1.712957999999993e-01  1.76896219e+00  -2.15512577e+00   9.57041450e-01
C     4.574053936676505e+00   2.265919685641345e+00  -1.764335999999993e-01 -3.59117141e+00   3.28940476e+00   2.47117000e-03
C     4.853448721907943e+00   9.123583874600469e-01  -1.055654999999973e-01  9.84630810e-01   2.20829360e-01   5.09999880e-01
C     6.212576938912489e+00   5.198392107461475e-01   4.827000000000001e-03  1.48902605e+00   5.92449590e-01  -7.57187090e-01
C     1.093624072732190e+01   6.812534064428023e+00   6.014160000000000e-02  3.73451156e+00   3.23716892e+00  -8.83781450e-01
C     2.015440212870309e+00   1.706421041675019e+00  -5.964480000000094e-02  3.19247121e+00   3.63626972e+00  -8.40614170e-01
C     2.398537782460563e+00   3.776936001825147e-01  -6.411900000000159e-02  3.54374720e+00  -5.39281860e-01  -6.46453610e-01
C     8.285116880357164e+00   7.662641594314239e+00  -8.331360000000032e-02 -2.10095475e+00  -1.94778200e-02   1.25979985e+00
C     4.493040390618352e+00   7.495245721524189e+00  -2.570921999999989e-01  4.65443560e-01  -3.64253696e+00   2.33946400e-01
C     5.887799199047522e+00   7.141017612476334e+00  -2.307920999999986e-01 -2.69451881e+00  -5.29802409e+00  -1.52661970e-01
C     9.596247830299343e-01   1.221047355520806e+00   3.338216400000000e+00  1.35351560e+00   1.38601384e+00   6.37868600e-02
C     3.302903745818684e+00   6.857374090535594e-01   3.392425500000000e+00  1.11333664e+00  -1.87846650e+00  -1.73132930e-01
C     4.662589221084835e+00   1.034749057380282e+00   3.519747300000000e+00  1.82653343e+00  -1.09197510e+00   9.73928670e-01
C     5.779090022189552e+00   3.138443149192530e-02   3.769417200000000e+00 -2.62593363e+00  -1.32776700e-01  -1.73732962e+00
C     7.125267240059813e+00   4.315991058134191e-01   3.661500300000000e+00  8.51252040e-01   8.06823920e-01   5.51078940e-01
C     1.262867215533340e+01   7.201648182994250e+00   3.633514200000000e+00  1.50225840e-01  -3.42490227e+00  -8.75239930e-01
C     5.123214462298844e+00   7.565399740687225e+00   3.320929200000000e+00 -2.62598524e+00  -1.28268821e+00   1.14615219e+00
C     6.113097808073711e+00   6.565464187461833e+00   3.300580200000000e+00 -8.85758000e-02  -9.98318070e-01   1.82206900e-02
C     7.467193996722093e+00   6.956001396968007e+00   3.348670800000000e+00  3.22142920e-01   1.78374000e-01   8.86575840e-01
C     8.452814320460881e+00   5.925551168734080e+00   3.599397900000000e+00  9.97381150e-01   2.44671603e+00  -1.05888560e+00
C     9.889640936891682e+00   6.303472675903084e+00   3.710649600000000e+00 -2.71159144e+00   1.93993441e+00   4.93317100e-01
C     1.086484009580683e+01   5.341891151476783e+00   3.753894600000000e+00  2.46069997e+00  -1.36102607e+00  -9.66310590e-01
C     3.376209943512790e+00   5.719446206378757e+00   3.694275000000000e+00 -7.71266390e-01   3.05236903e+00  -7.84304600e-02
C     4.384082139266044e+00   4.767767667696654e+00   3.564839700000000e+00  1.96395716e+00   1.25634602e+00  -9.82178380e-01
C     5.749996236760110e+00   5.182270978617840e+00   3.378027600000000e+00  2.06757720e-01  -7.24079430e-01   8.13773180e-01
C     6.773789118361703e+00   4.142086174125172e+00   3.468557400000000e+00 -3.12104234e+00   3.76471980e-01  -7.18373800e-01
C     8.059202396905942e+00   4.590027542443886e+00   3.519926400000000e+00  4.89975329e+00  -1.91000432e+00   1.20694299e+00
C     9.198821752471531e+00   3.591344823402579e+00   3.643338000000000e+00 -1.73299557e+00  -1.35643672e+00  -1.85867341e+00
C     1.057537805147451e+01   3.916845722469665e+00   3.553773300000000e+00 -1.91827275e+00   4.26374879e+00   1.52294764e+00
C     2.728500203194572e+00   3.044270843225480e+00   3.484671300000000e+00 -3.59260600e-02  -2.36259374e+00  -8.05260070e-01
C     4.118131707256531e+00   3.411908749976801e+00   3.454719000000000e+00 -4.19828650e+00   4.35489270e-01   7.50128440e-01
C     5.005744030121522e+00   2.406659215546697e+00   3.505090800000000e+00  3.98145234e+00  -2.01015899e+00  -4.04083800e-01
C     6.405304454657146e+00   2.739710909372814e+00   3.491163900000000e+00  1.17946389e+00   1.71899186e+00   7.88543280e-01
C     7.491911842126166e+00   1.827759152311152e+00   3.604960200000000e+00 -2.02085819e+00  -1.23957010e+00  -8.22176270e-01
C     8.849023221942431e+00   2.171773549338397e+00   3.490575000000000e+00 -7.74085840e-01   2.96581596e+00   7.71797640e-01
C     2.302885018651387e+00   1.686393012889757e+00   3.340160700000000e+00  1.32076763e+00  -1.03800785e+00   2.51231890e-01
