64
Lattice="9.86 0 0 4.93 8.53901048131456 0 0 0 30 " PBC="1 1 1" Properties=species:S:1:pos:R:3:force:R:3 Energy="-515.01666903"
C     4.944111730600000e+00   8.465438365704321e+00  -2.743235999999989e-01 -5.82793080e-01   2.23903550e+00   7.25455130e-01
C     1.244600044100000e+00   6.298945389849112e-01  -2.562816000000012e-01  5.07024110e-01   1.75200869e+00  -1.68423000e-03
C     9.812135172300000e+00   5.747599415077520e-02   3.679334700000000e+00  1.99433196e+00  -7.34435700e-02  -2.65875700e-01
C     1.216658677500000e+00   7.826336980229769e-01   3.657580200000000e+00 -1.05086423e+00  -5.56837610e-01  -3.24431780e-01
C     7.426027004300000e+00   8.499744267258244e+00  -2.739809999999991e-01 -1.71472232e+00  -2.41896923e+00   7.45642170e-01
C     3.679883088700000e+00   6.309938511941063e-01  -1.520963999999978e-01  2.11500125e+00   2.90929291e+00  -1.56714564e+00
C     2.409045633900000e+00   1.840609325995440e-02   3.573384300000000e+00  2.22514708e+00   1.92865714e+00   4.78454480e-01
C     3.726150448499999e+00   7.127224283002824e-01   3.649554300000000e+00 -1.78001462e+00   8.75338800e-02  -4.95266560e-01
C     9.859992161299999e+00   8.487785041520585e+00  -2.717580000000019e-01  2.24315780e-01  -1.73929750e-01   3.84731050e-01
C     6.160932062800000e+00   6.843426000194784e-01  -3.175724999999971e-01 -2.31970620e-01  -1.63908398e+00   1.21486269e+00
C     4.985770181299999e+00   4.275303228115920e-02   3.644115900000000e+00 -2.83360143e+00  -3.22908700e-01   3.40814960e-01
C     6.162361072600000e+00   7.875473008234832e-01   3.676272900000000e+00  1.03941415e+00  -1.74882641e+00  -8.58796290e-01
C     1.231642766670000e+01   8.525356004511746e+00  -1.662867000000006e-01  3.89756520e-01  -1.35087204e+00  -1.29623708e+00
C     8.620128910499998e+00   6.762526561006216e-01  -1.820898000000000e-01  9.47307400e-01  -1.53853020e-01  -8.42496140e-01
C     7.381551896700000e+00   1.838167168998160e-02   3.608827800000000e+00  3.31893380e-01   2.10821402e+00   3.50868800e-01
C     8.608813870299999e+00   7.689454934433272e-01   3.617086500000000e+00 -3.41410190e-01  -7.06707060e-01   3.13041260e-01
C     1.272176492100000e+00   2.088058834382321e+00  -2.156378999999973e-01 -1.05955882e+00  -6.82035310e-01   7.24450400e-02
C     2.475710868700000e+00   2.848616884781668e+00  -2.269952999999987e-01  5.35790370e-01  -3.17527013e+00   4.85004400e-02
C     1.108750028980000e+01   2.219992779775971e+00   3.649013100000000e+00 -1.17627260e+00  -1.15852417e+00  -9.49393500e-02
C     2.441011113000000e+00   2.883680025784958e+00   3.639756000000000e+00  1.65678745e+00  -1.50732381e+00   4.03108970e-01
C     3.708570610800000e+00   2.121452598836771e+00  -2.309097000000015e-01 -4.34202130e-01  -2.03903372e+00   5.69413520e-01
C     4.936951497200000e+00   2.785476964979509e+00  -2.383035000000007e-01 -2.00674690e-01   1.44724130e+00  -5.44119200e-02
C     3.693547766900000e+00   2.122475999242799e+00   3.661556400000000e+00 -7.31001690e-01   1.20508764e+00  -3.07926270e-01
C     4.894392483399999e+00   2.867083092675402e+00   3.622092900000000e+00  6.64269140e-01   1.07640289e+00   6.60749810e-01
C     6.168724765899999e+00   2.059391497618655e+00  -2.712578999999984e-01  1.14689930e-01   2.63478028e+00   1.12774170e-01
C     7.398819714699999e+00   2.802906537000970e+00  -2.288007000000007e-01  5.11187400e-01   6.49053890e-01  -4.39932230e-01
C     6.138247703099999e+00   2.186857064218226e+00   3.604986900000000e+00  2.77878220e-01   1.77026440e-01   1.20923700e-01
C     7.380787746699999e+00   2.871990205827943e+00   3.571437900000000e+00  4.10684770e-01   6.41776540e-01   9.13714660e-01
C     8.645610157800000e+00   2.109780966972078e+00  -2.684144999999987e-01 -3.53748540e-01  -9.91801520e-01   1.14170341e+00
C     9.890891527899999e+00   2.786448789762238e+00  -1.853379000000004e-01 -2.25405850e-01   9.45147590e-01  -8.76402640e-01
C     8.624273906599999e+00   2.183483215787474e+00   3.637929600000000e+00 -6.86848300e-02   6.94354640e-01  -7.20171830e-01
C     9.856304767799999e+00   2.951980667350915e+00   3.620313600000000e+00 -6.82319870e-01  -2.03453792e+00   5.12340990e-01
C     2.466388682400000e+00   4.208006432621992e+00  -2.446593000000021e-01  1.74173350e-01   2.69101525e+00   2.68476460e-01
C     3.694603427800000e+00   4.959665980200131e+00  -2.306555999999986e-01 -6.18322270e-01  -3.45992120e-01  -4.80482660e-01
C     1.230509685050000e+01   4.262105248127927e+00   3.701678100000000e+00  9.72078430e-01   2.07564447e+00  -1.20827300e-01
C     3.690308904800000e+00   4.995771648992925e+00   3.667550100000000e+00 -7.21095430e-01   1.34734636e+00   2.25497050e-01
C     4.897462246500000e+00   4.253949639218479e+00  -2.240982000000002e-01  1.85332821e+00  -1.82317294e+00  -4.58243300e-01
C     6.153165340799999e+00   4.927034151650811e+00  -2.915709000000000e-01  3.84780350e-01   1.18092424e+00   1.33267815e+00
C     4.902661325900000e+00   4.326570678526896e+00   3.697584300000000e+00  1.67211183e+00  -1.37834350e+00  -1.09006813e+00
C     6.176620949700000e+00   5.039474731580089e+00   3.598233900000000e+00 -1.15270663e+00  -1.13867557e+00   7.92048590e-01
C     7.415448111700000e+00   4.255776987461199e+00  -2.361500999999997e-01 -7.03086220e-01  -1.02714000e+00  -2.35933570e-01
C     8.652744508700000e+00   4.987459349241169e+00  -2.410376999999997e-01 -3.15409510e-01  -3.10274239e+00  -2.81748110e-01
C     7.413676811999999e+00   4.291506342062139e+00   3.663180600000000e+00 -2.11894343e+00   2.94330830e-01  -1.24924774e+00
C     8.595873409099999e+00   5.013863677447425e+00   3.629357700000000e+00  7.94521770e-01   1.56260989e+00   3.69230010e-01
C     9.875661229599999e+00   4.228156106431857e+00  -2.437848000000002e-01 -3.58715630e-01  -2.96972080e-01   4.88192470e-01
C     1.109834594470000e+01   4.915497692322017e+00  -2.327237999999987e-01  4.93452140e-01   8.74781110e-01  -4.35173900e-02
C     9.833468317600000e+00   4.352456091066284e+00   3.664493100000000e+00  1.34245916e+00  -5.57834780e-01   2.53164020e-01
C     1.110758358150000e+01   4.997440598591242e+00   3.763320900000001e+00 -1.31534080e+00   2.14184724e+00  -1.02997782e+00
C     3.703727132300000e+00   6.374261767815542e+00  -3.205308000000002e-01  6.64359220e-01   2.11943610e-01   1.06651065e+00
C     4.968165496400000e+00   7.087225679332198e+00  -2.486874000000014e-01 -1.41276678e+00  -1.57489418e+00  -9.00774500e-02
C     1.357048049280000e+01   6.444186273004480e+00   3.638157300000000e+00 -1.14906422e+00  -9.21404660e-01   4.07958880e-01
C     4.919722281099999e+00   7.158512156692696e+00   3.690242400000000e+00 -3.81490270e-01   5.83355450e-01  -8.07083200e-01
C     6.180045820699999e+00   6.369847782518219e+00  -1.687395000000009e-01  6.16493810e-01  -1.10003508e+00  -1.46093034e+00
C     7.439753554000000e+00   7.035358192654792e+00  -2.523264000000012e-01 -1.54142393e+00   2.11400859e+00  -4.73288500e-02
C     6.141963739900000e+00   6.456090080564125e+00   3.581789700000000e+00 -5.03502700e-02  -6.19641150e-01   1.57121790e-01
C     7.347263303000000e+00   7.167844355856184e+00   3.516877200000000e+00  8.12781970e-01  -7.97656800e-01   8.07033800e-01
C     8.649297748500000e+00   6.360270599144061e+00  -3.151854000000007e-01  1.25519312e+00   7.74336020e-01   8.26145690e-01
C     9.901393857599999e+00   7.060033542019058e+00  -2.624585999999987e-01 -6.41276610e-01   6.09534960e-01  -1.14815100e-01
C     8.576444722800000e+00   6.443839930739411e+00   3.627341400000000e+00  8.74350660e-01   6.34438850e-01  -4.04952700e-01
C     9.833866415099999e+00   7.163425674103098e+00   3.673344000000000e+00  9.54739040e-01  -7.33806750e-01  -2.80950280e-01
C     1.112911170830000e+01   6.352314803079846e+00  -2.103171000000010e-01 -9.19141900e-01  -4.70193670e-01  -6.55020310e-01
C     1.233261236370000e+01   7.069395115378596e+00  -2.587203000000002e-01  5.85498710e-01   1.21333270e+00   4.66719060e-01
C     1.109564726270000e+01   6.475323689329695e+00   3.688309800000000e+00 -7.90088500e-01  -2.42356421e+00   3.04474850e-01
C     1.232328337400000e+01   7.151974092538476e+00   3.626989200000000e+00  3.06375600e-01   2.41863980e-01   1.95067890e-01
