52
Lattice="8.88768389401873 1.33226762955019e-15 0 4.44384194700937 7.69696003302603 0 0 0 30 " PBC="1 1 1" Properties=species:S:1:pos:R:3:force:R:3 Energy="-418.8026883"
C     1.254192324990711e+01   6.829662186552382e+00   7.107959999999999e-02  2.22735120e-01   2.12677820e-01  -5.93545540e-01
C     8.818490075647713e+00   6.615631972332570e+00  -9.658649999999724e-02  5.70439260e-01  -1.52746240e-01   2.64291400e-01
C     1.017183623212420e+01   6.192720579244212e+00  -1.262508000000011e-01  8.88759300e-01   2.59940834e+00   6.44995690e-01
C     1.055268881720006e+01   4.860620560775361e+00  -9.544530000000151e-02 -1.72467020e+00  -1.64130989e+00   1.42063060e-01
C     6.421606468786166e+00   6.043067969624119e+00  -6.940469999999976e-02  4.02961420e-01  -1.43603831e+00   9.04722430e-01
C     7.814690837539181e+00   5.640688910142190e+00  -4.298310000000072e-02 -1.59601488e+00  -6.89342790e-01  -1.03561119e+00
C     8.135643321648288e+00   4.238658700107977e+00  -1.324821000000007e-01 -5.27607400e-02   9.27582620e-01   8.96027180e-01
C     9.506498348726568e+00   3.851519313607046e+00  -1.127858999999987e-01 -1.00859100e-01  -6.88058400e-02  -2.55845720e-01
C     9.811686081352237e+00   2.462649288862527e+00  -7.472040000000035e-02  3.79861420e-01   3.31568240e-01   3.80729990e-01
C     3.983772813951935e+00   5.453429877450721e+00   8.473919999999999e-02  1.37569468e+00  -1.25424690e-01  -6.19485770e-01
C     5.366123038056511e+00   5.063562303467156e+00  -1.346309999999917e-02  2.14466250e-01   5.61362690e-01   8.54207760e-01
C     5.708599670599837e+00   3.704384841430368e+00   1.008519000000000e-01  2.90120100e-01  -1.53572102e+00  -1.41784365e+00
C     7.090875904717461e+00   3.285935299101801e+00  -1.117229999999836e-02 -8.45591800e-02  -1.19837026e+00  -1.56630700e-01
C     7.438669105280557e+00   1.857780067333763e+00  -2.247899999999703e-02 -1.03640396e+00   1.76635524e+00   3.95169460e-01
C     8.787482898498908e+00   1.463210728346273e+00  -1.492560000000154e-02  6.92065310e-01   5.62867640e-01  -4.08290550e-01
C     2.995954964618052e+00   4.459774427853008e+00   3.700620000000000e-02  8.11965600e-02  -7.93096090e-01  -1.50525800e-02
C     3.306211076722730e+00   3.050981129949234e+00   5.544060000000000e-02  8.93944780e-01   1.68250612e+00  -4.70482400e-01
C     4.675719308637200e+00   2.686102968216669e+00   2.446050000000000e-02  6.92348690e-01  -8.28798600e-02   5.46267450e-01
C     5.028343409807009e+00   1.301519303543257e+00  -4.533689999999879e-02  1.25870564e+00   7.13870200e-01   6.02492420e-01
C     6.399497774063928e+00   8.916320134912630e-01   1.448040000000000e-02 -1.64684450e-01   1.33077685e+00  -6.11101470e-01
C     1.118666286407249e+01   7.249629954246867e+00  -5.326499999998902e-03 -4.71860810e-01  -2.62140329e+00  -1.58844150e-01
C     2.295563700436891e+00   2.096996120224541e+00  -3.936899999999355e-03 -1.54903490e-01  -2.19677509e+00   2.89332990e-01
C     2.670586898036424e+00   6.859192112494680e-01   5.163450000000000e-02  9.80590600e-02   7.04542030e-01  -5.54653410e-01
C     4.068498612306327e+00   3.020665806205476e-01  -2.171939999999850e-02 -2.52316084e+00  -9.73448300e-02  -6.99142000e-02
C     2.480336159226382e-01   9.699762908526209e-02   4.896300000000000e-03  9.25388200e-01  -3.43710530e-01   6.07419710e-01
C     6.096494281949441e+00   7.388781678267630e+00   3.627000000000000e-02 -1.09837582e+00   1.56398497e+00  -5.44031350e-01
C     7.582532404390110e-01   8.328833497006817e-01   3.490230900000000e+00 -4.19038640e-01   1.66624148e+00  -2.14433400e-02
C     3.146352570869833e+00   2.620110618372254e-01   3.556389600000000e+00  6.20380140e-01   1.82655448e+00  -2.83227110e-01
C     4.531275202274775e+00   6.628753595852513e-01   3.463361100000000e+00 -3.34377540e-01   1.15401791e+00   1.27758870e-01
C     1.001725679090982e+01   7.406113154075983e+00   3.356529600000000e+00 -6.73594780e-01  -4.66547710e-01   2.01260200e-02
C     6.928523914462819e+00   1.152210286218904e-01   3.297323700000000e+00 -1.21825700e-01  -1.46961598e+00   3.60631640e-01
C     1.236057503719908e+01   6.774913709858993e+00   3.334401900000000e+00  3.86608510e-01   1.12834889e+00  -1.20019880e-01
C     4.837582477112640e+00   7.141823792069877e+00   3.390295500000000e+00  1.19353628e+00   1.00607998e+00   6.48106230e-01
C     5.892856423869275e+00   6.175947748794838e+00   3.437710800000000e+00 -1.36573480e-01   1.22854882e+00   1.55399100e-02
C     7.264510943089943e+00   6.617098782005487e+00   3.437574300000000e+00 -6.22370950e-01  -1.45084118e+00   6.15606500e-01
C     8.303244910118224e+00   5.637270767162467e+00   3.428023800000000e+00 -1.29116130e-01  -4.63908350e-01  -1.06287384e+00
C     9.671350132737317e+00   6.016684330033286e+00   3.349551900000000e+00 -2.15606200e-01   2.53126110e-01  -1.73929460e-01
C     1.068363866302176e+01   5.015485628697371e+00   3.263880000000000e+00 -8.20929350e-01  -5.64633000e-03   1.43945201e+00
C     1.201211601399375e+01   5.426605125080568e+00   3.350466600000000e+00  1.65002310e+00  -1.39652343e+00   1.96269840e-01
C     4.177038521280927e+00   4.419605917696444e+00   3.498507000000000e+00 -3.27917120e-01   1.96577182e+00  -1.11922036e+00
C     5.544108462057689e+00   4.823026837688035e+00   3.475748700000000e+00 -1.66958150e-01  -4.70194240e-01  -3.53879490e-01
C     6.555825869792321e+00   3.847934531442674e+00   3.373744800000000e+00  1.71940971e+00  -1.39013150e-01   1.81024100e-02
C     7.960492313208883e+00   4.254436390595073e+00   3.302865000000000e+00 -1.01263477e+00  -1.32982200e-01   1.39242431e+00
C     8.977283033090282e+00   3.264346634700857e+00   3.436974600000000e+00  2.77106240e-01  -3.95190280e-01  -5.38679570e-01
C     1.035607893959540e+01   3.649429855299374e+00   3.466555800000000e+00  2.88069140e-01  -9.48629570e-01  -1.11842290e+00
C     2.524350903863678e+00   2.629952105405814e+00   3.464409600000000e+00 -2.41225345e+00   1.57119185e+00   8.16109770e-01
C     3.864654695863939e+00   3.074358106043549e+00   3.417721800000000e+00 -2.22359600e-01  -1.83762372e+00   8.64773430e-01
C     4.877733563439671e+00   2.075266755394248e+00   3.452055300000000e+00 -7.94723900e-02  -9.50425250e-01  -3.32194820e-01
C     6.232989994783708e+00   2.469240426645017e+00   3.376902900000000e+00  4.22828120e-01  -6.42914450e-01   1.16448070e-01
C     7.271011613928068e+00   1.458413674977175e+00   3.349553700000000e+00 -2.26155900e-02   1.93649947e+00  -7.39675700e-02
C     8.630647940348512e+00   1.878552315184326e+00   3.411381900000000e+00  4.03687070e-01  -1.16675922e+00   2.69893510e-01
C     2.117766294705475e+00   1.286233140923677e+00   3.625999800000000e+00  7.77920780e-01  -1.80565129e+00  -1.34735399e+00
