64
Lattice="9.86 0 0 4.93 8.53901048131456 0 0 0 30 " PBC="1 1 1" Properties=species:S:1:pos:R:3:force:R:3 Energy="-510.85210977"
C     5.061940751900000e+00   8.249976844476567e+00  -4.722462000000007e-01 -3.69736357e+00  -2.63106994e+00  -3.73172200e-01
C     1.312828729800000e+00   3.834191609135888e-01  -5.600144999999976e-01  1.56878018e+00   3.73384840e-01   5.28489580e-01
C     9.770271091300000e+00   3.458084915236952e-01   4.062621000000000e+00 -6.63885710e-01   9.31941190e-01  -9.32320130e-01
C     1.143260393800000e+00   9.870040693184673e-01   3.960320400000000e+00  2.26540986e+00   2.94467172e+00   1.64149900e-01
C     7.477299004300000e+00   8.170379262825779e+00  -5.080188000000021e-01  8.71540380e-01   2.82501304e+00  -3.90483240e-01
C     3.803485090700000e+00   3.602947520228056e-01  -5.869095000000009e-01 -1.77249127e+00   1.50130441e+00  -5.63815930e-01
C     2.411368945700000e+00   3.013651621180200e-01   4.284468600000000e+00 -1.51626953e+00  -5.60204180e-01  -1.44673284e+00
C     3.639681255800000e+00   9.421440362013680e-01   4.111197000000000e+00 -1.19002518e+00   5.10149714e+00   1.89421450e-01
C     9.936965138700000e+00   8.179948419530087e+00  -6.716103000000011e-01 -1.21206393e+00   5.05100720e-01   5.38356590e-01
C     6.198352044600000e+00   3.799552259222720e-01  -5.793920999999997e-01  5.18697170e-01   1.42360259e+00  -7.52524260e-01
C     4.874700140700000e+00   3.520349671855016e-01   4.296060900000001e+00  4.61649400e-01  -1.50691470e+00  -1.09222479e+00
C     6.127254148200000e+00   1.018394838084624e+00   4.189233600000001e+00 -9.98512530e-01   1.93497200e-02   1.00694730e-01
C     1.235211347170000e+01   8.246684543595899e+00  -6.857621999999992e-01  2.16507692e+00  -1.44873554e+00   1.17112211e+00
C     8.709775734699999e+00   3.959688592259401e-01  -4.104801000000009e-01 -1.42039158e+00  -1.11387205e+00  -1.51433422e+00
C     7.309426834799999e+00   3.228452991507744e-01   4.110291300000000e+00  2.62052761e+00  -4.26701750e-01  -9.76858300e-01
C     8.520978278799999e+00   1.054302401834281e+00   3.928431900000001e+00  8.69277250e-01   1.51019825e+00   5.14317940e-01
C     1.291858333900000e+00   1.816299190109404e+00  -7.067684999999990e-01  2.46388830e-01  -1.66350436e+00  -4.10397720e-01
C     2.482341620100000e+00   2.494260587597179e+00  -9.617175000000024e-01  2.04588491e+00   5.97532340e-01   1.11375165e+00
C     1.104673500720000e+01   2.469274845201965e+00   3.650351400000000e+00 -1.91163000e-01  -2.47419293e+00   1.09483059e+00
C     2.418906817100000e+00   3.164761451628577e+00   3.716152800000000e+00 -1.45089710e-01  -1.24822224e+00   1.45089770e-01
C     3.749940163500000e+00   1.841766788866004e+00  -7.479729000000006e-01 -1.08665176e+00  -2.25016123e+00  -2.40890540e-01
C     4.929612994999999e+00   2.574357615970941e+00  -7.093281000000005e-01  1.91350378e+00  -4.46420540e-01  -1.60407800e-02
C     3.617638387700000e+00   2.471820409616158e+00   3.902178300000000e+00  2.24031272e+00  -3.44883100e+00   8.20775180e-01
C     4.914219513700000e+00   3.086987973396527e+00   4.090002600000000e+00 -9.89202020e-01   1.96832651e+00   5.39377400e-02
C     6.172773873499999e+00   1.838963260945210e+00  -5.560004999999997e-01 -4.28960810e-01  -5.53516040e-01   1.98072450e-01
C     7.411973053300000e+00   2.515391564491405e+00  -4.822886999999980e-01  1.97735710e-01   6.63325610e-01  -4.64810530e-01
C     6.176432968799999e+00   2.405836316203320e+00   4.169557800000000e+00 -2.43688905e+00   8.59099270e-01   2.96418480e-01
C     7.339546275399999e+00   3.173592752437307e+00   4.181898900000000e+00  1.15571813e+00   1.04887559e+00  -9.04739560e-01
C     8.609298440000000e+00   1.784586756818466e+00  -4.339535999999988e-01  4.03114570e+00   1.53462703e+00  -6.35101050e-01
C     9.970675443399999e+00   2.512821578507240e+00  -6.701243999999988e-01 -3.93318448e+00   6.93004760e-01   9.04834770e-01
C     8.549141594000000e+00   2.530842477004442e+00   3.863910900000000e+00  1.41371772e+00  -2.73145107e+00   4.99122820e-01
C     9.842182832100001e+00   3.208589289158854e+00   3.681666000000000e+00 -2.80247822e+00  -1.55390650e+00   3.43274020e-01
C     2.499642370500000e+00   3.906171112586943e+00  -1.054459500000000e+00  7.84003430e-01   1.24444850e+00   6.97010880e-01
C     3.733545990800000e+00   4.680162990443741e+00  -9.322745999999995e-01  2.07681820e-01  -3.12882818e+00  -8.17686680e-01
C     1.226420950110000e+01   4.541980880301664e+00   3.797082300000000e+00 -6.73900380e-01   3.71313648e+00  -2.44494670e-01
C     3.588620506300000e+00   5.290659800881655e+00   4.013843700000000e+00  3.32055027e+00  -1.58373552e+00   3.49828930e-01
C     4.964742400200000e+00   3.991250995136205e+00  -8.120256000000019e-01  2.02816402e+00   4.05691900e-02   1.25694315e+00
C     6.269935003699999e+00   4.698948557329426e+00  -5.664618000000026e-01 -2.01177594e+00  -1.35955815e+00  -1.66765853e+00
C     4.908806127200000e+00   4.525699805189763e+00   4.202773500000000e+00 -1.43310022e+00   2.25463671e+00   1.91833010e-01
C     6.097717187100001e+00   5.343010766332440e+00   4.503335400000000e+00 -6.86644460e-01  -1.52126278e+00  -1.85924400e+00
C     7.502640979100001e+00   3.950391744599300e+00  -5.869692000000022e-01 -1.50283082e+00   2.49577620e-01   8.58998960e-01
C     8.719894904799999e+00   4.664648633082838e+00  -6.167075999999980e-01  6.41343030e-01  -9.76953750e-01  -7.72673770e-01
C     7.348880490899999e+00   4.597878438365211e+00   4.319071800000001e+00 -1.71889735e+00   9.36351140e-01   6.88712650e-01
C     8.551501880800000e+00   5.323390084221809e+00   4.218728100000000e+00  1.06149660e+00  -2.36161161e+00  -1.31803872e+00
C     9.972885710300000e+00   3.953012879256241e+00  -7.705298999999997e-01 -1.73590805e+00  -8.92819070e-01   4.55712670e-01
C     1.116971504040000e+01   4.650471826323524e+00  -9.270674999999997e-01  9.99816000e-03   8.43151220e-01  -5.29313650e-01
C     9.740699472299999e+00   4.585526076585054e+00   3.774774600000000e+00  2.02016523e+00   3.24511787e+00   1.19560769e+00
C     1.102477683650000e+01   5.332677197409962e+00   3.779576700000000e+00 -7.97454230e-01  -1.80477489e+00   6.71253130e-01
C     3.762793067900000e+00   6.026157221763879e+00  -9.165191999999998e-01 -9.91670660e-01   5.01579511e+00   1.52988004e+00
C     4.998327088500000e+00   6.751832902011798e+00  -6.049352999999975e-01 -1.39292386e+00   2.44838537e+00  -5.81151950e-01
C     1.352159160550000e+01   6.715363471372556e+00   4.051590300000000e+00  8.42184570e-01   5.25753570e-01   2.92898700e-02
C     4.880915095900001e+00   7.509827199904629e+00   4.194535200000000e+00 -1.26299041e+00  -2.79578956e+00   4.66665320e-01
C     6.217530829199999e+00   6.122561198451298e+00  -5.741285999999981e-01  1.96037584e+00  -1.96732222e+00   7.78470740e-01
C     7.486305374800000e+00   6.797788234003166e+00  -4.666904999999986e-01 -8.45514570e-01  -9.91321020e-01  -9.79129190e-01
C     6.071145423799999e+00   6.816021583081111e+00   4.453986600000000e+00 -6.74450600e-02  -3.36867625e+00  -5.21095100e-02
C     7.321307543200000e+00   7.400058988695172e+00   4.455946800000000e+00  2.91769810e-01   2.64726767e+00  -4.88783900e-02
C     8.709293925799999e+00   6.079022321035664e+00  -6.657738000000002e-01 -2.50617363e+00  -1.05269636e+00   1.11406706e+00
C     9.866928868500001e+00   6.763695978491452e+00  -7.490552999999984e-01  4.03994982e+00   1.40312713e+00  -3.49459870e-01
C     8.536356575699999e+00   6.704818476550594e+00   4.355378400000000e+00  1.88863846e+00   1.78870424e+00  -2.78854310e-01
C     9.774455724599999e+00   7.488629191778134e+00   4.215879300000000e+00  1.35343961e+00  -3.17963157e+00   5.71723800e-01
C     1.114592108560000e+01   6.105267994427201e+00  -9.103767000000005e-01 -1.30970853e+00  -1.59035693e+00   2.61207710e-01
C     1.233458944160000e+01   6.802173699005484e+00  -8.860865999999987e-01  2.62355305e+00   7.62445990e-01   1.59848430e-01
C     1.105001779560000e+01   6.707622943762541e+00   4.062036600000000e+00 -1.00272560e-01   2.25870947e+00  -9.01277760e-01
C     1.235132792550000e+01   7.455585868313783e+00   3.985765200000000e+00 -4.09070549e+00  -1.24048848e+00   1.21857912e+00
