64
Lattice="7.10842262195238 0 0 0 7.10842262195238 0 0 0 7.10842262195238 " PBC="1 1 1" Properties=species:S:1:pos:R:3:force:R:3 Energy="-511.76484376"
C     3.583945841819459e-02   7.097885734066148e+00   7.107079199209045e+00 -4.48076130e-01  -4.58132630e-01  -9.64251620e-01
C     1.781649358738704e+00   1.733665515695370e+00   5.957696949429160e-02 -3.61838510e-01   2.24180475e+00  -1.88170540e+00
C     7.098995358837129e+00   1.730376235296418e+00   1.759708999069395e+00  6.62985950e-01   1.90554828e+00  -1.01850974e+00
C     1.806076386808941e+00   7.044319220233970e+00   1.785420803443971e+00 -1.02570461e+00   1.94824212e+00   2.26230460e-01
C     9.050329945022080e-01   8.341765221629528e-01   8.673398727173959e-01 -1.88185700e-01   5.40244510e-01   1.78822581e+00
C     2.643009839600835e+00   2.696984234722947e+00   9.160491302891005e-01  6.02305760e-01  -1.39127836e+00  -9.82442600e-02
C     8.549793920446089e-01   2.700336566830539e+00   2.595610522149543e+00  5.92538530e-01  -1.69729857e+00   1.92075226e+00
C     2.680496888213893e+00   9.003310572759827e-01   2.622870754223434e+00 -1.06672942e+00  -1.12171951e+00   1.48954964e+00
C     3.569773424220835e+00   7.444188962455700e-02   1.693347111268540e-02 -1.40789923e+00  -2.05855583e+00   9.72071200e-02
C     5.301679960738886e+00   1.744340020691146e+00   7.082055490144086e+00  2.13001265e+00   3.31455471e+00  -4.26884400e-02
C     3.544417965072200e+00   1.781023533211239e+00   1.777234246365196e+00  1.31131522e+00   9.57460710e-01   1.81553310e-01
C     5.333552208492859e+00   2.703077219171680e-02   1.707533177038595e+00 -9.27227740e-01  -2.13405190e-01   1.90901163e+00
C     4.456227703194958e+00   9.514054292218137e-01   8.705550833526482e-01 -9.16450720e-01  -1.64938218e+00   3.02140260e-01
C     6.234058985976008e+00   2.710230993527996e+00   8.709638887375244e-01  3.06033120e-01  -2.33062771e+00  -3.74988840e-01
C     4.504668831065437e+00   2.632119665062768e+00   2.693399599364133e+00 -2.82050498e+00   1.20946081e+00  -5.83282370e-01
C     6.219342276457370e+00   8.681529340966716e-01   2.624087147502169e+00 -1.62355880e-01   9.25188620e-01   1.26253389e+00
C     6.679187628513920e-02   3.619777338804320e+00   7.064322747992008e+00 -2.80972267e+00  -2.21190746e+00   1.11690946e+00
C     1.842446702228397e+00   5.321831628024325e+00   1.508904869547400e-03 -1.08268506e+00   7.04802450e-01   9.60379920e-01
C     7.100625817733479e+00   5.361730635516575e+00   1.781016495872845e+00 -3.43844020e-01  -9.43069970e-01  -8.61005580e-01
C     1.762438846608154e+00   3.600891823755956e+00   1.761624079207450e+00 -3.44719560e-01  -1.30270105e+00   2.38520800e-01
C     9.056234911692513e-01   4.446053844404310e+00   8.589146858912672e-01  9.74437700e-02   2.01826196e+00   5.99772420e-01
C     2.697102732128022e+00   6.208093268745446e+00   9.526403043993602e-01  7.26911690e-01  -5.20706080e-01  -2.16624255e+00
C     8.714160555003825e-01   6.228060117042764e+00   2.670096341825892e+00  6.10846220e-01  -3.92109770e-01   8.67201330e-01
C     2.630891969392068e+00   4.443356411272698e+00   2.685110965336535e+00  1.69890452e+00  -1.05498370e-01  -7.91855670e-01
C     3.534618151479815e+00   3.532354189959572e+00   2.517717990932560e-02  7.92995950e-01   5.57891190e-01  -7.17086190e-01
C     5.275434384909775e+00   5.312336765762338e+00   2.683216286371400e-02  7.31826860e-01   6.21493700e-02  -4.04233740e-01
C     3.595960142310653e+00   5.274766406436173e+00   1.828281748473523e+00 -1.15704762e+00   1.58033827e+00  -1.58633362e+00
C     5.350397321912378e+00   3.510766408052215e+00   1.811200990844151e+00  1.04679842e+00   5.07991120e-01  -1.14440591e+00
C     4.491669232114885e+00   4.364296250556154e+00   9.220295884077589e-01 -2.36519768e+00   1.71738784e+00   2.47905910e-01
C     6.163680270721043e+00   6.250905023490468e+00   8.464608716294796e-01  2.21710943e+00  -1.35151027e+00   7.21919710e-01
C     4.446373154748400e+00   6.237549150398202e+00   2.635431123740295e+00  3.75796710e-01  -8.64058710e-01   4.60371560e-01
C     6.228562256016640e+00   4.425275711833371e+00   2.671347139870107e+00 -2.25263630e-01   7.01911830e-01  -3.55400170e-01
C     7.076531179504953e+00   2.431073427617380e-02   3.569713144797018e+00  2.75749010e-01  -3.39923640e-01  -3.98265300e-01
C     1.761750253708955e+00   1.773408564395338e+00   3.487728507930378e+00 -4.79614560e-01   1.08853695e+00   1.49350596e+00
C     5.642523707303600e-03   1.800811249258533e+00   5.359359194646316e+00  3.58669860e-01  -2.80568580e-01  -1.56130650e-01
C     1.842853446170714e+00   7.094150186895112e+00   5.320414208553896e+00 -2.28779054e+00   6.27980090e-01   9.09866000e-03
C     8.308280286035756e-01   9.210850922942395e-01   4.455533565726116e+00  2.53036133e+00  -1.13166777e+00  -1.35006026e+00
C     2.640281555915053e+00   2.677025418943189e+00   4.421249359092951e+00  7.44014540e-01   1.13420390e-01  -2.84154560e-01
C     9.433340285894823e-01   2.655112924290551e+00   6.234077254622141e+00 -1.57267484e+00   1.20589184e+00  -1.35291570e-01
C     2.636322448852617e+00   9.533891767223771e-01   6.212667254364511e+00  1.39285260e+00  -2.48375729e+00   9.92796220e-01
C     3.540157176553772e+00   3.220044362633800e-03   3.556489417281257e+00  3.37300170e-01  -1.17240512e+00  -1.87981678e+00
C     5.348217239779050e+00   1.778767319871651e+00   3.559582291963219e+00 -5.35387890e-01  -1.79193604e+00   1.08390808e+00
C     3.520003163488869e+00   1.788942458178371e+00   5.347616506983434e+00 -2.73672300e-02   2.95193620e-01  -1.71877744e+00
C     5.266046006818636e+00   7.048978293671797e+00   5.401315166392116e+00  1.82928440e+00   1.92430888e+00  -2.68893755e+00
C     4.366203724682005e+00   7.996745845449373e-01   4.445439605605715e+00  2.63465666e+00   3.58571280e+00   1.66492778e+00
C     6.220179577557780e+00   2.668753418624521e+00   4.505702822219741e+00  6.75267040e-01  -3.48069450e-01  -2.38472023e+00
C     4.400428647070518e+00   2.678241243548114e+00   6.213021182726761e+00  1.35487493e+00  -9.25051040e-01  -3.58708880e-01
C     6.270464132666302e+00   9.020790894824671e-01   6.219308937955282e+00 -2.43276844e+00  -1.23887390e+00   5.08458810e-01
C     7.098305273169180e+00   3.555378797331109e+00   3.562638131763332e+00  4.19162020e-01  -3.47672580e-01  -5.30062480e-01
C     1.787329770338572e+00   5.305603099182864e+00   3.566712253103758e+00 -9.77893510e-01   1.30624394e+00  -5.98780890e-01
C     7.074953678357122e+00   5.359577636473429e+00   5.356685645814708e+00  1.10411301e+00  -3.48850720e-01  -1.36457503e+00
C     1.776677870126729e+00   3.595589082649889e+00   5.319443695613588e+00  2.84985040e-01  -1.88947869e+00   1.76723930e-01
C     8.884626216169522e-01   4.439522128111470e+00   4.407521288992302e+00 -8.79851110e-01   4.55182480e-01   2.09709021e+00
C     2.717191418789047e+00   6.185233434610240e+00   4.402724454324100e+00 -1.92578129e+00   6.91056600e-01   1.39660444e+00
C     9.746808217433847e-01   6.184735063100351e+00   6.237421198791042e+00 -2.22665092e+00   1.28603796e+00  -8.94821480e-01
C     2.670095417730951e+00   4.459670241185599e+00   6.228599575235395e+00  4.97234060e-01  -1.11026189e+00  -2.68002700e-01
C     3.544665409263602e+00   3.584072940415905e+00   3.530710722649828e+00  8.62736690e-01  -1.95403145e+00   1.66654778e+00
C     5.326368010087730e+00   5.310408250705532e+00   3.498608730676776e+00  5.60362800e-01   1.71231517e+00   2.29760189e+00
C     3.545558227144674e+00   5.313040286349040e+00   5.350584557764188e+00  1.13936461e+00   4.80584810e-01  -6.34876360e-01
C     5.367517104781933e+00   3.568803693207014e+00   5.306553566371385e+00 -2.35473495e+00  -6.09470760e-01   1.76156667e+00
C     4.488600810406736e+00   4.439582762956420e+00   4.463844235863836e+00 -1.91209416e+00   4.86755840e-01  -1.72514180e+00
C     6.188322115322856e+00   6.263697340837419e+00   4.444406965051708e+00  1.53992590e-01  -1.93172604e+00   4.11188640e-01
C     4.377876323297854e+00   6.211326748026831e+00   6.260278687146783e+00  9.34986600e-01  -9.68276100e-02   3.10667810e-01
C     6.148264803258859e+00   4.460467237529753e+00   6.216735475714163e+00  3.27245638e+00   4.89064620e-01   1.02894840e-01
