64
Lattice="7.10842262195238 0 0 0 7.10842262195238 0 0 0 7.10842262195238 " PBC="1 1 1" Properties=species:S:1:pos:R:3:force:R:3 Energy="-508.42120374"
C     1.573243202681020e-02   2.095740698941500e-02   3.395309630752519e-02 -9.22399000e-01   8.42640030e-01  -3.62303450e-01
C     1.842598467051334e+00   1.744693238211134e+00   3.987227982319920e-02 -1.52314143e+00   1.32858952e+00  -2.75852779e+00
C     7.076468838638576e+00   1.815448273359602e+00   1.938632190384141e+00  8.78862620e-01  -6.34299000e-03  -6.10173908e+00
C     1.720846683932046e+00   1.663228724627600e-02   1.790290001854445e+00  1.13702460e+00  -4.26261370e-01   5.47990840e-01
C     8.675802084861782e-01   9.308851191393026e-01   8.642112426696553e-01  8.29365360e-01  -2.77277510e-01   3.26834739e+00
C     2.749452923765691e+00   2.692160459133015e+00   8.414292457621388e-01 -2.32736197e+00  -1.92266581e+00   1.79794451e+00
C     9.052289026296152e-01   2.688848929371262e+00   2.664526892703122e+00  6.37107670e-01  -5.01444320e-01   7.20232440e-01
C     2.662435381515640e+00   9.242295030401966e-01   2.760243082797494e+00 -1.39088091e+00  -5.97655350e-01  -2.68771334e+00
C     3.620688851836882e+00   7.081134380740987e+00   7.041796725383038e+00 -2.87169656e+00  -2.21242780e-01   1.50288012e+00
C     5.361375143301348e+00   1.718950725450839e+00   9.286869816125200e-03 -1.24171078e+00   2.82289394e+00   6.36738710e-01
C     3.537352264072146e+00   1.813995240691847e+00   1.773773368644196e+00  1.17679119e+00  -2.34988697e+00   6.71650590e-01
C     5.420346475188416e+00   2.686557245002800e-03   1.802457417768873e+00 -4.31618805e+00   1.35699630e-01   7.92217960e-01
C     4.432161498656913e+00   8.566482364231064e-01   8.948144237332795e-01  1.61321823e+00   3.89401610e-01  -3.40795740e-01
C     6.167040635346195e+00   2.730190022560432e+00   9.244541291949886e-01  1.10005409e+00  -3.44042910e+00   4.77453600e-02
C     4.406801490117801e+00   2.647513025330605e+00   2.682695310077580e+00  7.89400700e-02   2.29654949e+00  -1.85036663e+00
C     6.228037583343059e+00   9.137341302944452e-01   2.734549191647921e+00 -1.18212577e+00   4.18847820e-01  -9.96644110e-01
C     7.102030655295869e+00   3.505809633875063e+00   7.068941801010484e+00  7.70567900e-02   1.60233990e-01   2.00045867e+00
C     1.700803562260015e+00   5.371081907641637e+00   7.006150758228559e+00  1.74536895e+00  -1.96194914e+00   3.91247731e+00
C     7.078310773107870e+00   5.324913768988131e+00   1.767198788562958e+00  1.32462101e+00  -1.31667353e+00   5.32161150e-01
C     1.828114629457727e+00   3.481493141776567e+00   1.699472510124420e+00 -2.06363314e+00   3.25863884e+00   1.70231864e+00
C     8.277406274070309e-01   4.368063572376301e+00   8.266811880997462e-01  2.49268251e+00   2.42456993e+00   8.81141020e-01
C     2.583115479036560e+00   6.193150795724397e+00   9.059378256175078e-01  1.37217387e+00   1.57088803e+00  -2.15433498e+00
C     8.447557742956202e-01   6.198158252954829e+00   2.695505398481082e+00  1.12497810e+00   1.14952850e+00  -8.20832750e-01
C     2.686067190347377e+00   4.469066083120488e+00   2.628728023378088e+00  1.20763380e-01  -2.57509716e+00  -1.50571230e-01
C     3.534325710973228e+00   3.591733047715444e+00   7.104006583531551e+00  2.28384990e+00  -2.21176840e-01  -1.16607345e+00
C     5.443628833964154e+00   5.408982666451180e+00   7.036864262011246e+00 -2.53125051e+00  -2.06968260e+00   2.21205741e+00
C     3.533077827382288e+00   5.363031334687582e+00   1.717513189144397e+00 -4.46275740e-01  -5.89114710e-01   3.07542250e-01
C     5.261538129529937e+00   3.585002508841923e+00   1.804176803032198e+00  1.09828659e+00   4.19703710e-01  -2.94010771e+00
C     4.457821056125232e+00   4.544502725406488e+00   7.405145240373088e-01 -6.17339430e-01  -1.44284391e+00   4.78854343e+00
C     6.263063980381978e+00   6.232119168527237e+00   9.494148576355352e-01 -6.17905710e-01   7.26571810e-01  -2.59275282e+00
C     4.327229025383033e+00   6.183338542392427e+00   2.679426430851547e+00  3.97357577e+00   1.37211438e+00   2.91943890e-01
C     6.200965724468598e+00   4.435709170218103e+00   2.619039030094349e+00 -4.82496590e-01  -3.61462490e-01   1.74774840e+00
C     4.914479062563200e-03   9.182276485694520e-02   3.615528776772798e+00 -4.70226040e-01  -3.45079680e+00  -1.91702814e+00
C     1.771002434422694e+00   1.832742852341383e+00   3.597745849157024e+00  8.34395070e-01  -9.64989000e-01  -5.56818010e-01
C     7.050114575027605e+00   1.755381746799470e+00   5.351144061708609e+00  3.22772693e+00   1.64660281e+00  -1.14784428e+00
C     1.653287666677756e+00   7.103943602907138e+00   5.347611104582242e+00  3.07023452e+00   1.45710656e+00  -9.85703740e-01
C     8.521705699305422e-01   9.591784893567837e-01   4.434138564240214e+00  8.29992600e-01  -1.25758811e+00   1.41128448e+00
C     2.739199450641698e+00   2.648663950037009e+00   4.459762010921622e+00 -1.87161410e+00  -1.09104880e-01   1.46834960e-01
C     9.168995108871312e-01   2.647271623298430e+00   6.190401115686528e+00 -1.01944080e+00  -7.17579930e-01   9.78627820e-01
C     2.621378269810139e+00   8.627754123846415e-01   6.154558316309702e+00  2.25181499e+00  -1.49996350e-01   2.80113266e+00
C     3.505025859196981e+00   9.410485285486998e-03   3.658564517914576e+00  1.16867160e-01  -1.55744788e+00  -2.65675528e+00
C     5.269394642546466e+00   1.857489332924162e+00   3.512317536952125e+00  2.33145432e+00  -4.42229441e+00   3.25142330e+00
C     3.609821566419653e+00   1.720473491744496e+00   5.359721226610353e+00 -1.31317443e+00   1.50541894e+00  -1.07136570e+00
C     5.406984417768471e+00   7.098147963776599e+00   5.306743858844922e+00 -1.86765642e+00  -8.22489100e-02  -7.81238670e-01
C     4.462016589324008e+00   8.162087044748312e-01   4.434362124131612e+00  3.53910840e-01   3.12924929e+00   1.03747535e+00
C     6.219043225117747e+00   2.646307223601574e+00   4.485120882113116e+00 -7.81583070e-01   1.68198296e+00  -2.00878127e+00
C     4.461384224047733e+00   2.691159095638535e+00   6.251315819233677e+00  4.82877880e-01  -1.66153945e+00  -9.78656570e-01
C     6.261560335745169e+00   8.901286226264016e-01   6.181170189156422e+00 -2.18122727e+00  -1.19346374e+00   3.04949850e+00
C     7.106482304961645e+00   3.535279092615023e+00   3.541682715132250e+00  1.73430890e-01   8.83671860e-01  -1.55778820e-01
C     1.780517840026053e+00   5.265503278751599e+00   3.527201720907691e+00 -1.98819880e-01   2.83093444e+00   2.72010810e-01
C     1.794308037740400e-02   5.320319950869955e+00   5.339870458854420e+00  3.58790000e-03   2.65154190e-01  -1.08251741e+00
C     1.775976339898361e+00   3.508419562324222e+00   5.289795033539377e+00  1.23764130e+00   9.62253720e-01   9.90648520e-01
C     9.165050645159473e-01   4.407816786120615e+00   4.370154799226879e+00 -8.70756350e-01   1.41298770e-01   2.60777612e+00
C     2.595368124938202e+00   6.224077196764552e+00   4.520659867507162e+00  9.09410990e-01  -1.89463332e+00  -1.73105614e+00
C     8.224496862825126e-01   6.291724856048913e+00   6.237905424539917e+00  8.09021020e-01  -2.83318288e+00  -1.03459582e+00
C     2.664867457230846e+00   4.424250464038889e+00   6.236515088159670e+00 -1.73390784e+00   4.84470500e-01  -1.79619400e+00
C     3.580501953228523e+00   3.512499014981614e+00   3.574472802414917e+00 -4.69129150e-01   1.88665005e+00  -1.56091500e-01
C     5.335864507286919e+00   5.276451600186697e+00   3.520992869170252e+00 -1.13344360e+00   2.48579269e+00   1.33664059e+00
C     3.570969060905519e+00   5.230073407644769e+00   5.355788633964290e+00 -2.84090740e-01   3.79669056e+00  -4.59992100e-01
C     5.408329046991271e+00   3.597851338148704e+00   5.336861463559373e+00 -2.38162496e+00  -2.06167882e+00   1.29857597e+00
C     4.477403125506129e+00   4.422899295067279e+00   4.495666013817207e+00  1.04954800e-01  -5.76867200e-01  -2.60444645e+00
C     6.257410367535387e+00   6.243276548671588e+00   4.432086931303629e+00 -5.09221290e-01  -1.57455500e+00  -1.63107000e-03
C     4.515018196810574e+00   6.207511586522451e+00   6.144272428778562e+00 -6.17516300e-01   1.54763680e-01   1.60480079e+00
C     6.261406011890089e+00   4.407178023263982e+00   6.267256954548611e+00  4.49557460e-01   2.14590783e+00  -3.11464106e+00
