64
Lattice="7.10842262195238 0 0 0 7.10842262195238 0 0 0 7.10842262195238 " PBC="1 1 1" Properties=species:S:1:pos:R:3:force:R:3 Energy="-508.53460888"
C     2.743872456587860e-02   7.039263070308591e+00   7.052217601859732e+00 -2.07316874e+00   1.19511837e+00   1.96931037e+00
C     1.744577584175106e+00   1.717275696744663e+00   7.105102631215328e+00  6.52439540e-01   3.68865032e+00  -2.62748920e-01
C     1.060860991808800e-03   1.716689536215417e+00   1.724389663934306e+00  1.35515575e+00   5.70314920e-01   6.00408670e-01
C     1.838378765215650e+00   7.032214713859730e+00   1.726988147823047e+00 -2.32988678e+00   2.39764572e+00   2.00599912e+00
C     8.873338041048962e-01   8.045405130810059e-01   8.073955399421028e-01  5.23774510e-01   7.12786640e-01   1.84509688e+00
C     2.567977879814591e+00   2.731947295716322e+00   9.575141943687632e-01  2.76913095e+00  -3.25164631e+00  -1.29445999e+00
C     8.483318795472898e-01   2.592079697549964e+00   2.686521916142378e+00 -9.04751700e-01   3.42878487e+00  -1.42157027e+00
C     2.619491907699469e+00   9.073123102153110e-01   2.650071559884221e+00  2.73659791e+00  -7.08732100e-02  -7.87611810e-01
C     3.591448284305287e+00   6.655260677974999e-02   7.106442711047651e+00 -1.01448908e+00  -9.44201990e-01  -7.23034850e-01
C     5.337001357316535e+00   1.870028163920485e+00   7.075535005158986e+00 -9.96088020e-01  -2.15593614e+00  -1.22013660e+00
C     3.587488679653267e+00   1.858048339278999e+00   1.836330046732340e+00 -2.28590339e+00  -2.21153854e+00  -3.09468451e+00
C     5.430740908332964e+00   7.897244278141399e-02   1.619642791575034e+00 -2.80095590e+00  -3.13420434e+00   3.56177829e+00
C     4.468500608101067e+00   9.970059603291137e-01   8.222747480018343e-01  2.45276700e-02  -1.53203749e+00   1.56826980e+00
C     6.227731565749267e+00   2.650430108721174e+00   8.853988203835059e-01  1.56096170e-01   9.17844700e-01  -8.50913700e-02
C     4.495073953297188e+00   2.669995828730046e+00   2.647910315070837e+00 -1.09341090e+00  -1.69407281e+00   2.82152102e+00
C     6.295973489164660e+00   8.314448264343131e-01   2.609642974906781e+00 -1.54151310e+00   1.34100731e+00   6.66980140e-01
C     7.074106425465045e+00   3.578496809375872e+00   7.093681315339096e+00  9.92104120e-01  -8.67508700e-02   1.55776870e-01
C     1.818573917869842e+00   5.333669781802993e+00   3.932628188175700e-02 -1.21426601e+00  -7.13057680e-01  -5.26035760e-01
C     7.071560686072144e+00   5.321568758555836e+00   1.770509678566676e+00  8.61825660e-01  -9.26685580e-01   5.71522830e-01
C     1.724229795509582e+00   3.557231820939691e+00   1.841805664676526e+00 -2.42038350e-01  -5.32094600e-02  -1.37089025e+00
C     8.738591492706503e-01   4.441943683361200e+00   8.246784611107874e-01 -2.00425700e-02   2.61964660e-01   4.35620042e+00
C     2.728327758002444e+00   6.173449233759257e+00   9.102950754308891e-01 -2.65016100e-02   8.09978750e-01  -1.85929800e-02
C     8.811818197484171e-01   6.222075962544343e+00   2.698125136553457e+00  6.84874290e-01  -1.54744063e+00  -1.58943852e+00
C     2.686767654312352e+00   4.378552121036337e+00   2.718679353811865e+00 -1.50758389e+00   2.04705849e+00  -8.82847140e-01
C     3.494318228951797e+00   3.560261075239203e+00   4.991449062692560e-02  5.51640020e-01  -3.61275320e-01   4.34853110e-01
C     5.280814252401270e+00   5.290565088961801e+00   7.104239100035451e+00  1.67664050e-01   9.95244540e-01   1.34420744e+00
C     3.602844862870801e+00   5.253832457241404e+00   1.838622228690385e+00 -6.49222910e-01   1.94995122e+00  -8.29332600e-01
C     5.350521008465966e+00   3.497783229557916e+00   1.840346163344187e+00  5.48974620e-01   2.10439674e+00  -2.17423232e+00
C     4.455049126724562e+00   4.394138901483664e+00   9.608092325900380e-01 -3.47868330e-01  -7.42977100e-02  -1.78852028e+00
C     6.190289442367168e+00   6.118680472409359e+00   8.529022398708188e-01  9.18879830e-01   3.80261543e+00  -2.78088210e-01
C     4.485256368648253e+00   6.225186750451307e+00   2.643414024511008e+00  3.42606320e-01   6.30372470e-01  -5.48651740e-01
C     6.187689039204319e+00   4.414698165722132e+00   2.710880490102785e+00  2.11738530e+00   3.89523310e-01  -4.82380770e-01
C     2.142336409215600e-03   7.086656274516429e+00   3.610316881307814e+00 -5.07493800e-02  -1.06811930e-01  -3.06141203e+00
C     1.702613508827520e+00   1.793719602515916e+00   3.514039978837177e+00  1.82524544e+00  -3.00278033e+00   1.73540599e+00
C     7.102961289985280e+00   1.697613586525064e+00   5.360000516535092e+00  1.78777213e+00   3.11759454e+00  -1.87415136e+00
C     1.818518898678763e+00   7.094021097940332e+00   5.345128345813755e+00  1.29785940e-01   6.34452010e-01  -9.93485350e-01
C     8.884787577362996e-01   8.052375650031232e-01   4.414184297850933e+00  5.30338300e-01   2.94370343e+00   2.22824207e+00
C     2.592973581694428e+00   2.675547933301623e+00   4.399505831645990e+00  6.49452220e-01  -5.33098700e-02   2.71016690e-01
C     8.600164203131410e-01   2.739782056959633e+00   6.187530521379894e+00  2.23912310e-01  -4.11727476e+00   1.05374647e+00
C     2.681755860944121e+00   9.658245801695790e-01   6.170122136551965e+00 -1.16407786e+00  -1.93014230e+00   1.70150950e+00
C     3.633473705340084e+00   6.220872080089419e-02   3.491634657244294e+00 -2.48779258e+00  -1.08065124e+00   7.66746930e-01
C     5.409707156884609e+00   1.742337506954866e+00   3.510070635646169e+00 -9.69954090e-01   1.25886411e+00   1.31997912e+00
C     3.478746376191973e+00   1.876092430341833e+00   5.271828353198875e+00  1.89271817e+00  -2.92918857e+00   6.31961660e-01
C     5.287270335077432e+00   7.082821067260261e+00   5.285913692620405e+00 -8.46296610e-01   3.06249980e+00   2.37868902e+00
C     4.435393911674906e+00   9.167645930258036e-01   4.400956945039637e+00  1.11196155e+00   1.01519322e+00   1.27952090e-01
C     6.292049853131100e+00   2.674891896978023e+00   4.523438763161999e+00 -2.95343594e+00  -1.52858653e+00  -1.67580260e+00
C     4.344409016592180e+00   2.728027213894070e+00   6.175830768589635e+00  2.03715008e+00  -7.47615010e-01   1.82860378e+00
C     6.244553434626819e+00   8.771029357648350e-01   6.173342038746147e+00 -2.17026074e+00  -8.50376510e-01   1.80199403e+00
C     7.103672061163054e+00   3.573595694147835e+00   3.639510746502797e+00 -2.13141420e-01  -6.42112190e-01  -1.95251014e+00
C     1.788044024643430e+00   5.343481537545379e+00   3.572866085650118e+00  8.04335160e-01   5.77459700e-01  -1.29263650e-01
C     7.093308976162261e+00   5.418019461959533e+00   5.443697714579343e+00 -6.04310800e-01  -2.55354042e+00  -3.98268003e+00
C     1.775541446602469e+00   3.557247814890586e+00   5.314892528031133e+00 -1.34213045e+00   1.64519462e+00   7.71845920e-01
C     8.534566257509526e-01   4.513594593012466e+00   4.434999394219496e+00  1.56892516e+00  -5.44119690e-01   2.28574858e+00
C     2.776745783499407e+00   6.317360315964549e+00   4.422263091242788e+00 -2.60006702e+00  -3.99275751e+00   9.22904050e-01
C     8.858128149168948e-01   6.180416269853345e+00   6.289448881294441e+00  3.16022926e+00   1.35767916e+00  -2.48354161e+00
C     2.644777704306429e+00   4.420241171512756e+00   6.311832948703691e+00  7.79813830e-01   1.19880058e+00  -3.84621900e+00
C     3.537194741426887e+00   3.484882153344878e+00   3.553313445138868e+00  1.18097104e+00   1.97718016e+00   2.67177580e-01
C     5.378290416852127e+00   5.344801855962818e+00   3.562966398719923e+00 -2.02234494e+00  -9.81182000e-03   1.65946180e-01
C     3.606773901305554e+00   5.288402635716572e+00   5.353008885298740e+00 -2.49902874e+00   1.58574452e+00  -6.48658630e-01
C     5.288501869296347e+00   3.545486503160438e+00   5.363780917852861e+00  1.71754654e+00   1.26690548e+00  -1.40365582e+00
C     4.440031091171062e+00   4.409865149182794e+00   4.427354214607459e+00  5.09020310e-01   6.30121180e-01   8.36204850e-01
C     6.165910040728485e+00   6.309815365111456e+00   4.474961169083480e+00  2.41978820e+00  -4.13820704e+00  -7.29161510e-01
C     4.386640937304088e+00   6.224045919705024e+00   6.222139796179470e+00  2.55649345e+00  -3.47928290e-01   1.20218540e-01
C     6.204239792843144e+00   4.502105604952892e+00   6.253881035704556e+00 -1.32510546e+00  -2.20101031e+00  -9.40412850e-01
