26
Lattice="8.88768389401873 1.33226762955019e-15 0 4.44384194700937 7.69696003302603 0 0 0 30 " PBC="1 1 1" Properties=species:S:1:pos:R:3:force:R:3 Energy="-209.17685523"
C     1.658818652814605e-01   1.760554916110014e-01   3.689664300000000e+00 -1.24102277e+00   5.51204580e-01  -3.68166030e-01
C     6.965415628451949e+00   7.325433003284720e+00   3.563512800000000e+00  1.30653396e+00  -8.68089310e-01   5.07449400e-01
C     3.915648135701371e+00   1.281820935556080e-02   3.566279700000000e+00 -1.59908040e-01   2.43735170e-01   1.22354480e-01
C     9.416327731564563e+00   6.748443094619820e+00   3.557209500000000e+00 -7.90615110e-01  -1.35972426e+00   1.64803900e-02
C     1.078711214648938e+01   7.123371946759558e+00   3.632428200000000e+00 -1.35840189e+00   3.15694610e-01  -2.47019610e-01
C     1.175994855904874e+01   6.112457603686575e+00   3.660091200000000e+00  4.00277700e-01  -5.07148540e-01   1.98674210e-01
C     4.222075927539969e+00   6.502825634011290e+00   3.732139500000000e+00  1.79283812e+00  -3.47000180e-01  -4.06901400e-01
C     5.277266774438129e+00   5.515239237397232e+00   3.709533900000000e+00 -4.45312300e-01   3.87802900e-01  -8.32507100e-02
C     6.646227392218536e+00   5.933634593127187e+00   3.662224500000000e+00 -4.11275400e-02   5.90015600e-02  -6.67742990e-01
C     7.695664174826105e+00   4.966788425009966e+00   3.577694100000000e+00 -7.11120690e-01  -1.16708080e+00   4.41995610e-01
C     9.068597320632854e+00   5.320570110376081e+00   3.520995000000000e+00 -3.48989000e-01   1.46443289e+00   3.09912740e-01
C     1.006635066605584e+01   4.323629521267963e+00   3.563040600000000e+00  2.15408830e-01  -5.43870330e-01  -1.66367900e-02
C     1.142120550740010e+01   4.712658434486658e+00   3.634888500000000e+00  8.13960400e-02   8.82604350e-01  -1.80892420e-01
C     3.553000061777453e+00   3.739168096532341e+00   3.649944900000000e+00  4.01607450e-01   7.25547600e-02   3.77649130e-01
C     4.918438223788765e+00   4.137594305221264e+00   3.671229900000000e+00  4.37214490e-01   1.06364860e-01   2.75694320e-01
C     5.949156610907424e+00   3.155719899615069e+00   3.687027000000000e+00  7.52634580e-01   4.35366090e-01   1.16115700e-02
C     7.331957663296441e+00   3.564982196512626e+00   3.654891000000000e+00  5.17475130e-01  -3.24234360e-01  -6.44758440e-01
C     8.375895502534215e+00   2.549195138953452e+00   3.580464600000000e+00 -3.91104590e-01   7.07207910e-01   4.55594030e-01
C     9.755370828022423e+00   2.915986457071073e+00   3.566549400000000e+00 -1.04189223e+00   1.58176672e+00   3.37032410e-01
C     1.885322254522486e+00   1.954523542798834e+00   3.651708900000000e+00 -7.18269360e-01   2.48568420e-01  -5.74970830e-01
C     3.232973272572915e+00   2.353366233994981e+00   3.685990200000000e+00 -2.98148990e-01   1.03148689e+00  -3.95325310e-01
C     4.249636276469133e+00   1.413026087133071e+00   3.651662700000000e+00  4.82789880e-01  -2.07120762e+00   8.52408000e-03
C     5.609310331070950e+00   1.776606464434977e+00   3.691345800000000e+00  9.51038820e-01   4.47830540e-01  -4.33615250e-01
C     6.665194417331118e+00   8.176349021852487e-01   3.639634800000000e+00 -3.43912260e-01  -8.53331890e-01   4.20721970e-01
C     8.031108603664599e+00   1.174528468491492e+00   3.647275500000000e+00 -2.92347700e-02   3.74308190e-01  -4.97189800e-02
C     1.506024612437027e+00   6.010532996546910e-01   3.596913900000000e+00  5.79844550e-01  -8.68243160e-01   5.85304410e-01
