26
Lattice="8.88768389401873 1.33226762955019e-15 0 4.44384194700937 7.69696003302603 0 0 0 30 " PBC="1 1 1" Properties=species:S:1:pos:R:3:force:R:3 Energy="-208.7203268"
C     1.241505805026274e+01   6.638981085431576e+00  -1.132053000000006e-01 -7.07777500e-01   8.93364050e-01  -1.41653070e-01
C     8.635889543762806e+00   6.440272670756282e+00  -2.998985999999988e-01 -4.53020640e-01   3.41128270e-01   5.82407820e-01
C     9.982646149221582e+00   6.033427219308144e+00  -2.072481000000010e-01  1.40012984e+00   1.21589388e+00  -2.53567400e-01
C     1.035054373515593e+01   4.648186234248169e+00  -1.779782999999995e-01 -1.25791110e+00   4.40895350e-01   2.56424000e-02
C     6.246702448952203e+00   5.858936211792840e+00  -1.549937999999997e-01 -3.73014100e-02  -1.36492785e+00  -1.47476340e-01
C     7.603348380258987e+00   5.426849657500720e+00  -2.872463999999972e-01  2.34991100e-01   1.97251172e+00   5.00149900e-01
C     7.949531354740805e+00   4.071805001182440e+00  -2.206397999999972e-01 -7.84437290e-01  -6.79782490e-01  -9.49922100e-02
C     9.292078219843072e+00   3.656994581556058e+00  -2.325087000000003e-01  1.78061149e+00  -2.56871390e-01   3.84657310e-01
C     9.667539624704082e+00   2.257126678503073e+00  -1.838201999999995e-01  1.91657220e-01   2.57114234e+00   2.33316370e-01
C     3.858791581091274e+00   5.249102604983926e+00  -3.385410000000277e-02 -7.19309650e-01   1.06002719e+00   2.87128600e-01
C     5.215704098510592e+00   4.869745383860526e+00   2.276430000000000e-02  1.45944920e-01   1.23774821e+00  -1.00098036e+00
C     5.539065411622223e+00   3.525933440101229e+00  -1.345680000000016e-02  4.40704910e-01  -2.11510027e+00   7.75058910e-01
C     6.891513023263235e+00   3.111958371546902e+00  -1.051034999999985e-01  1.03161631e+00  -7.55470290e-01  -1.37531920e-01
C     7.267733702961871e+00   1.716558399852131e+00  -1.128014999999998e-01 -8.34123170e-01   8.76977200e-01  -1.81385600e-01
C     8.629677049399000e+00   1.322265612638519e+00  -1.802165999999978e-01 -1.76002440e-01  -5.27664530e-01   1.20234620e-01
C     2.812942710784634e+00   4.296256668374073e+00  -2.526540000000210e-02  8.45780160e-01  -1.89352907e+00  -1.12061710e-01
C     3.182506293036005e+00   2.867671946236360e+00   3.824010000000001e-02 -1.46330761e+00   2.43043503e+00  -4.47874300e-02
C     4.519790182844430e+00   2.509634226821658e+00   1.030002000000000e-01  9.21674440e-01  -1.30124830e-01  -8.05706910e-01
C     4.826409410281895e+00   1.130080217649449e+00  -9.082799999998059e-03  2.62043393e+00   1.03042010e-01  -4.53266150e-01
C     6.248608009484308e+00   7.291736635908584e-01  -1.136115000000011e-01 -1.29960283e+00   8.60046200e-01   4.18463150e-01
C     1.104479640943406e+01   7.079522211529447e+00  -1.624904999999970e-01 -7.99263900e-01  -2.80721941e+00   1.63398920e-01
C     2.159545652864518e+00   1.923036895677711e+00  -6.935249999999726e-02 -1.04344471e+00  -2.50069011e+00  -7.33450740e-01
C     2.473309511591410e+00   4.879639441131091e-01  -2.009124000000000e-01  6.06433450e-01   2.68258230e+00   6.82324240e-01
C     3.836649424282974e+00   1.650650023841644e-01  -1.690415999999999e-01  1.54090870e-01  -2.50684569e+00  -2.83253680e-01
C     4.520972648092538e+00   7.658843914235437e+00  -1.580168999999998e-01  1.25815655e+00  -2.06517865e+00  -1.20773240e-01
C     5.922827072213058e+00   7.216116543610644e+00  -2.167176000000026e-01 -2.05672294e+00   9.17610850e-01   3.38104530e-01
