72
Lattice="7.395 0 0 3.6975 6.40425786098592 0 0 0 13.6 " PBC="1 1 1" Properties=species:S:1:pos:R:3:force:R:3 Energy="-570.68562517"
C     3.674804929875000e+00   6.202064488078860e+00   1.354158460000000e+01  1.27506329e+00   1.06948673e+00   1.00808667e+00
C     1.143095103225000e+00   6.442299792114187e-01   4.484300800000000e-02  2.39825208e+00  -6.96371962e+00  -7.59741970e-01
C     1.449096357825000e+00   9.758215733215950e-01   3.748905280000000e+00 -2.54213600e+00   1.22287340e-01  -3.73899430e-01
C     2.619657304500000e+00   1.758015661737535e+00   3.900385616000000e+00 -6.07339980e-01  -5.15984730e-01   1.93200000e-05
C     6.045326311275000e+00   6.195431470128101e+00   1.346624128000000e+01  3.53887583e+00   1.67202579e+00   6.10711300e-02
C     3.624685687125000e+00   5.734628017732615e-01   1.343598073600000e+01  1.52083009e+00  -8.17767540e-01   1.06964661e+00
C     3.776825129700000e+00   9.470571693562980e-01   3.792431672000000e+00  3.40617963e+00   3.97519978e+00  -1.47050421e+00
C     5.032305005924999e+00   1.719452487076124e+00   3.515519896000000e+00  1.41883230e+00  -6.84060240e-01   2.25238954e+00
C     8.709527398275000e+00   6.233788235558684e+00   1.328781812000000e+01 -4.90379473e+00  -6.00638950e-01   1.99923262e+00
C     6.230595945450000e+00   5.574212245577976e-01   1.343146771200000e+01 -3.59564378e+00  -5.85627850e-01  -5.13540150e-01
C     6.329759641649999e+00   1.051787150907293e+00   3.477321440000000e+00 -1.88256123e+00  -2.08407735e+00  -7.04886700e-02
C     7.555680038999999e+00   1.664895831175777e+00   3.717828872000000e+00  1.47252494e+00   2.91742015e+00  -9.79577100e-02
C     1.218020097000000e+00   1.984593309503204e+00   8.542092000000000e-02 -7.64739490e-01   1.22567605e+00  -1.39271500e-02
C     2.431673224650000e+00   2.716707574433253e+00   1.594106320000000e-01  6.32346200e-01  -3.59214700e+00   3.30051500e-01
C     2.634835689900000e+00   3.233103379310204e+00   3.925840328000000e+00 -3.05505300e-01  -3.16560411e+00  -1.70187361e+00
C     3.898275470175000e+00   3.796369065548459e+00   3.503227536000000e+00 -3.48696185e+00   2.64890649e+00   2.34316517e+00
C     3.667541893650000e+00   2.042303357931237e+00   1.841902400000000e-01  2.54907880e-01  -3.98501092e+00  -3.28994109e+00
C     4.882064488425000e+00   2.701247503831476e+00   1.339965404800000e+01  9.62029720e-01  -4.74470766e+00   1.33972844e+00
C     5.126139606300000e+00   3.171072121933716e+00   3.672065008000000e+00 -4.71926894e+00  -5.55079921e+00  -1.88122164e+00
C     6.261583176975000e+00   3.789439786629097e+00   3.604638656000000e+00  6.89820009e+00   4.51979104e+00   7.22739380e-01
C     6.165105344774999e+00   1.990260501326097e+00   1.335811012800000e+01 -1.25293445e+00  -2.13210561e+00   6.69265300e-01
C     7.373475040724999e+00   2.626906878592597e+00   1.349793716800000e+01  5.11325650e-01   2.00976991e+00  -1.49925491e+00
C     7.536357828374999e+00   3.159913150910716e+00   3.807985176000000e+00 -1.58902187e+00  -3.07972686e+00  -2.14436600e-01
C     8.713667821800000e+00   3.905026586317256e+00   3.916554928000000e+00  3.74070472e+00  -2.96495025e+00  -1.40607829e+00
C     2.470576212075000e+00   4.036201733892128e+00   5.775131200000000e-02 -2.17657354e+00   5.42003919e+00   8.91924500e-02
C     3.690041403000000e+00   4.765726437156485e+00   8.421269599999999e-02  7.35274210e-01   3.99090270e-01  -1.91591503e+00
C     3.859610416875000e+00   5.207803455313860e+00   3.414330048000000e+00  1.08988932e+00   2.88499086e+00  -2.02224950e-01
C     5.149053420525000e+00   5.937510872054963e+00   3.504952288000000e+00 -2.27161944e+00   1.82427388e+00   7.02738330e-01
C     4.924841938200000e+00   4.012027133449936e+00   1.340450584800000e+01 -3.85150880e-01   5.84508878e+00   9.37050800e-01
C     6.170726210325000e+00   4.734790605521177e+00   1.329942177600000e+01 -2.03138673e+00   1.63982502e+00  -3.70371910e-01
C     6.348992409750000e+00   5.281349120024578e+00   3.604420920000000e+00 -1.27572427e+00  -3.13433088e+00   2.07338780e-01
C     7.525959386099999e+00   5.983091704394205e+00   3.731329320000000e+00  2.19899479e+00  -2.01866158e+00  -1.56731809e+00
C     7.394830173825000e+00   4.005792780550962e+00   1.317649953600000e+01 -2.83946910e-01   2.64435102e+00   3.12502840e+00
C     8.556315643725000e+00   4.764784819123329e+00   1.350367174400000e+01  3.59654690e+00   1.48644849e+00  -2.20122444e+00
C     8.802063473624999e+00   5.183515819720438e+00   3.523046816000000e+00 -9.08519640e-01   7.21546640e+00   1.04551257e+00
C     1.004013148957500e+01   6.009981710169037e+00   3.372822032000000e+00 -7.00222250e-01  -3.01736421e+00   8.97728130e-01
C     7.409026059524999e+00   1.326262243207902e-01   6.901169040000000e+00  6.10458830e-01   2.96390160e+00   1.86129080e-01
C     1.237602759525000e+00   8.570893223854963e-01   7.023683552000000e+00 -4.63928790e-01   2.65883219e+00  -4.92628370e-01
C     1.065525324675000e+00   4.252260067909854e-01   9.854763591999999e+00  1.48275210e+00   1.75097246e+00  -4.83710300e-01
C     2.306652023550000e+00   1.176417082906666e+00   1.005889592000000e+01  5.81532960e-01  -1.95562112e+00  -5.05839670e-01
C     2.446267035300000e+00   1.877745055622436e-01   6.974665072000001e+00  2.74570137e+00  -2.00056387e+00  -5.51358800e-01
C     3.788413686300000e+00   8.810121074086332e-01   6.946585967999999e+00 -3.49458424e+00  -5.09115290e-01   4.14595610e-01
C     3.614520668024999e+00   4.340226392171670e-01   9.987252344000000e+00 -7.01252528e+00  -2.09385319e+00   6.96283520e-01
C     4.743877746974999e+00   1.069420954711910e+00   9.969586351999999e+00  6.19114430e+00   4.02610686e+00  -1.32270034e+00
C     5.002947891224999e+00   1.645833429570330e-01   6.913108343999999e+00 -3.07495990e-01   1.53752920e-01  -4.82640970e-01
C     6.219517311075000e+00   9.113456826347874e-01   6.902164424000000e+00 -7.25745290e-01  -3.25141076e+00   9.00971000e-03
C     6.032408429475000e+00   4.415715941270634e-01   9.722205072000001e+00 -1.60725002e+00   9.49360080e-01   6.51807920e-01
C     7.246712391075000e+00   1.106686946943778e+00   9.638623416000000e+00  5.89451000e-02   2.47969443e+00   2.14257329e+00
C     8.586591106499998e+00   2.388037090418179e+00   7.096864064000001e+00  4.01919281e+00  -3.26523867e+00   2.24625900e-01
C     2.485140220875000e+00   3.084300511975683e+00   7.201261880000000e+00 -1.03995377e+00  -5.61999070e+00  -2.14450029e+00
C     2.304565043625000e+00   2.600974757665885e+00   1.011331332800000e+01  2.84662080e-01  -3.23030973e+00  -3.08079470e-01
C     3.543770706375000e+00   3.207926512512922e+00   1.009273965600000e+01  1.26376070e+00   3.70448132e+00  -1.68000608e+00
C     3.686431681649999e+00   2.288836288933194e+00   7.011412679999999e+00  2.30337245e+00   2.07236630e+00   6.72185140e-01
C     4.954577233199999e+00   3.076700258960328e+00   7.000093400000001e+00 -1.21903938e+00  -5.44622035e+00  -4.08228290e-01
C     4.771462686900000e+00   2.488571642645088e+00   9.898125695999999e+00 -7.15012230e-01   2.55869020e+00   4.33625250e-01
C     5.975492516174999e+00   3.301910917885781e+00   9.645876840000000e+00  8.97002240e-01  -3.48668054e+00   2.33418902e+00
C     6.230203049100000e+00   2.245110962223730e+00   7.012526520000000e+00 -1.55660396e+00   6.64850890e+00  -6.78579180e-01
C     7.435685478224999e+00   3.076118175963433e+00   7.064044952000000e+00 -2.47909681e+00  -6.30450000e-03  -9.68033800e-01
C     7.228648624574999e+00   2.528548621271673e+00   9.754818007999999e+00  1.17492909e+00   1.87774882e+00  -3.02882310e-01
C     8.513455480874999e+00   3.253648814908292e+00   9.879747335999999e+00 -3.42514447e+00   2.20962933e+00   9.53195190e-01
C     9.842153547899999e+00   4.394228503383919e+00   6.958220224000000e+00  2.52108383e+00   3.88532259e+00   5.12770290e-01
C     3.676897493025000e+00   5.186825540182487e+00   6.939469496000000e+00 -6.10881290e-01  -3.35525241e+00  -6.82672890e-01
C     3.475496479799999e+00   4.710267741536557e+00   9.814258711999999e+00  3.74922318e+00  -8.47940240e-01   5.91491380e-01
C     4.731476960549999e+00   5.462160916441429e+00   9.708511095999999e+00  1.36533180e+00  -4.21227317e+00   1.69429361e+00
C     4.863752028075000e+00   4.434340868021665e+00   6.942688072000000e+00  3.39449171e+00   1.34116432e+00  -1.55194560e-01
C     6.165168535050000e+00   5.085789854778033e+00   6.907600752000000e+00 -1.88522622e+00   5.06218008e+00   3.04863210e-01
C     6.006563348175000e+00   4.668511916246779e+00   9.778417272000000e+00 -4.17038040e-01   3.39341765e+00  -7.23271000e-03
C     7.295200925400000e+00   5.411263973695180e+00   9.897614880000001e+00 -3.02316685e+00  -6.28821220e-01   3.73315000e-03
C     7.422992478374999e+00   4.545977969759827e+00   6.971157360000000e+00 -4.41433250e-01  -4.72087739e+00   2.93244200e-02
C     8.681689327499999e+00   5.123553970186252e+00   6.937736040000001e+00 -1.66717186e+00   3.21684152e+00  -2.97049120e-01
C     8.482200143625001e+00   4.732337262420168e+00   9.936525432000000e+00  1.44738619e+00  -1.42798742e+00  -8.27856740e-01
C     9.731172826574999e+00   5.502358073453241e+00   9.791946551999999e+00 -1.98545800e+00  -4.83308755e+00   1.15463191e+00
