72
Lattice="7.395 0 0 3.6975 6.40425786098592 0 0 0 13.6 " PBC="1 1 1" Properties=species:S:1:pos:R:3:force:R:3 Energy="-580.80871342"
C     3.678778374300000e+00   6.262667659995147e+00   4.857498400000000e-02 -3.85978590e-01  -4.38934360e-01  -6.92940110e-01
C     1.224564524100000e+00   5.285184245801461e-01   1.355073087200000e+01 -4.05553740e-01   1.85736920e+00   5.54363500e-01
C     1.316448249525000e+00   8.819678148090810e-01   3.313027728000000e+00 -3.31400780e-01   6.26402590e-01   5.42354500e-01
C     2.532991047375000e+00   1.595031590053302e+00   3.193589400000000e+00  1.52702902e+00   8.33436600e-02   5.27607690e-01
C     6.165587387850000e+00   6.264019854999708e+00   8.842842400000001e-02 -1.47921088e+00  -1.19588630e+00  -6.92516600e-02
C     3.662782138875000e+00   5.706623478962407e-01   1.065358720000000e-01  8.72519710e-01   4.71438100e-02  -8.91909260e-01
C     3.801908156250000e+00   9.276890284806144e-01   3.307731888000000e+00 -1.14410371e+00  -2.48258938e+00   5.83541270e-01
C     5.038566537299999e+00   1.611054338750657e+00   3.493741264000000e+00 -1.57993140e+00  -2.42429290e-01  -1.09240235e+00
C     8.589801054150000e+00   6.254073786372813e+00   1.366829920000000e-01  1.04146229e+00   4.70117030e-01  -6.12840430e-01
C     6.125553594000000e+00   5.737276178357724e-01   8.834260799999999e-02  6.62591050e-01  -1.31721492e+00   2.70799250e-01
C     6.234633726375000e+00   8.920084102819891e-01   3.567782656000000e+00  1.28296035e+00  -6.79038610e-01  -4.72685370e-01
C     7.472096276699999e+00   1.608514025827909e+00   3.416711544000000e+00 -1.53869700e-02  -1.02434047e+00   1.09943600e-02
C     1.199719320750000e+00   1.993596287117635e+00   1.350232806400000e+01  8.79478600e-01  -9.85792810e-01   2.49499140e-01
C     2.443332810225000e+00   2.687025440316618e+00   1.338877772000000e+01 -7.47142100e-02   9.05984200e-01   8.26136340e-01
C     2.562297469350000e+00   3.016582209576936e+00   3.236383568000000e+00 -9.82569890e-01   5.32944610e-01   7.95548660e-01
C     3.745234466175000e+00   3.733969947600493e+00   3.468544136000000e+00  2.29638584e+00   2.89377400e-01  -7.99938240e-01
C     3.673953506550000e+00   1.981401555470938e+00   1.348351967200000e+01  4.68697770e-01   2.70637450e-01   1.32611180e+00
C     4.908238573275000e+00   2.692878419660029e+00   1.172374400000000e-01 -1.04872500e-02   9.42120000e-02  -6.63977560e-01
C     4.990675740825000e+00   3.008059871514898e+00   3.400154768000000e+00  1.34264891e+00   2.11134700e+00   1.12234651e+00
C     6.262798951950000e+00   3.761053874303326e+00   3.427030952000000e+00 -1.52038750e+00  -2.66184040e+00  -8.76883300e-02
C     6.150773132249999e+00   1.956092056493375e+00   1.910809520000000e-01 -2.22362670e-01   2.19811734e+00  -5.39628670e-01
C     7.396432781249999e+00   2.695503460914264e+00   1.328676480000000e-01 -1.16447115e+00   7.22653990e-01   4.34674210e-01
C     7.477711078350000e+00   3.012635649713290e+00   3.346216080000000e+00  1.00542048e+00   1.49774254e+00   1.87954000e-03
C     8.751685960500000e+00   3.741781925380699e+00   3.285285768000000e+00 -2.13709847e+00   7.87915000e-03   6.35522010e-01
C     2.458129132950000e+00   4.136875322557177e+00   1.348806220800000e+01 -2.21776510e-01  -1.26229338e+00  -8.66312900e-02
C     3.674112388125000e+00   4.838003418385138e+00   1.355585671200000e+01  8.16315190e-01   2.37901520e-01   6.53735180e-01
C     3.795305900249999e+00   5.180956614237004e+00   3.590579384000000e+00 -9.88116650e-01  -1.24444687e+00  -6.59774680e-01
C     5.029785936150000e+00   5.893048863563862e+00   3.506261424000000e+00 -5.04265950e-01  -1.08478569e+00  -4.66998290e-01
C     4.912489441125000e+00   4.132511653379109e+00   1.130149120000000e-01 -4.05742080e-01  -9.77544280e-01  -2.72235490e-01
C     6.140532462299999e+00   4.819841647562542e+00   2.266975840000000e-01  1.80179120e-01   1.57088560e+00  -1.10519800e-01
C     6.243218470950000e+00   5.139596123784924e+00   3.432160736000000e+00  4.21750760e-01   1.78641348e+00  -2.53648000e-01
C     7.477440938999999e+00   5.841617293371460e+00   3.351461056000000e+00 -2.12104310e-01   2.77569884e+00   4.99023850e-01
C     7.370502620474999e+00   4.156008747382292e+00   2.983393920000000e-01  1.85652416e+00  -2.12822288e+00  -2.33738102e+00
C     8.644318140374999e+00   4.842022474447758e+00   3.132610400000000e-02 -2.35513293e+00  -1.06991600e-02   1.39133669e+00
C     8.709374654549999e+00   5.190251113669222e+00   3.438386408000000e+00  6.69010100e-02  -2.87153453e+00  -5.59764980e-01
C     9.925343415524999e+00   5.843678631848858e+00   3.563835120000000e+00  1.46050275e+00   2.50168609e+00  -1.15189700e-02
C     7.430598161924999e+00   1.190488134021186e-01   6.966904912000000e+00 -4.94921810e-01  -6.12598600e-02  -5.19062880e-01
C     1.242925347750000e+00   8.408845646797596e-01   6.802037551999999e+00  1.17791292e+00  -1.29821126e+00   1.94512540e-01
C     1.139306422875000e+00   5.684970683137747e-01   1.009280099200000e+01 -6.45479640e-01  -5.74027800e-01   7.88862810e-01
C     2.355148211700000e+00   1.271731652637046e+00   9.945926567999999e+00  3.93729700e-01  -6.40066400e-02   5.96446630e-01
C     2.501824228275000e+00   1.064946748043178e-01   6.810730535999999e+00 -8.57604390e-01   1.76652038e+00  -3.77072700e-02
C     3.711202121550000e+00   8.238348932345533e-01   6.790729832000000e+00  8.96877410e-01   9.12368610e-01  -1.60563700e-01
C     3.576820477350000e+00   5.578302004647373e-01   1.007301598400000e+01  1.97686963e+00   1.50838690e-01  -3.02413340e-01
C     4.883185829249999e+00   1.291038440722430e+00   1.007529480000000e+01 -3.16732223e+00  -1.16603640e+00   6.95801320e-01
C     4.957035737924999e+00   1.192704007240746e-01   6.907398248000000e+00 -4.07115630e-01   4.98299260e-01   4.03117100e-02
C     6.195900306299999e+00   8.169472419912804e-01   6.965022264000000e+00 -1.29205860e-01   1.38586500e+00  -8.86915240e-01
C     6.063120012374999e+00   5.523717874480806e-01   1.026083076000000e+01  4.28109260e-01   3.16251490e-01  -4.57279770e-01
C     7.296591074475000e+00   1.274335047499714e+00   1.023934344000000e+01  6.98934470e-01  -1.66372090e-01  -8.29751180e-01
C     8.673818644124999e+00   2.230583863906999e+00   6.706565416000000e+00 -1.17107525e+00   1.29685285e+00   7.23683900e-02
C     2.498010257025000e+00   2.951243601313808e+00   6.618429528000000e+00 -1.73741360e-01   1.60973279e+00   1.53042632e+00
C     2.360283669450000e+00   2.686838884285156e+00   9.887201360000001e+00 -3.43326600e-02   1.48814149e+00   9.67255670e-01
C     3.601459692975000e+00   3.431699735761698e+00   9.933096328000000e+00 -2.98459310e-01  -1.60264541e+00   7.03601870e-01
C     3.727878512100000e+00   2.277050020852807e+00   6.687399888000000e+00 -6.87648870e-01  -2.45323966e+00   6.45799000e-02
C     4.950222132824999e+00   2.927718969001827e+00   6.742141792000000e+00  6.78266340e-01   3.10405796e+00   4.44433570e-01
C     4.823454047849999e+00   2.707989458208434e+00   1.006324166400000e+01  7.12073540e-01  -3.82346900e-01  -5.73984600e-02
C     6.045139291725000e+00   3.388686306355951e+00   1.022026223200000e+01  1.02983810e+00   1.59247357e+00  -6.68234940e-01
C     6.180975421499999e+00   2.280525739678586e+00   6.820009135999999e+00  8.14112670e-01  -2.59166881e+00   3.30641160e-01
C     7.421344613550000e+00   2.972560493813711e+00   6.785241552000000e+00  3.30472970e-01  -1.45210598e+00   4.11400200e-02
C     7.307132425124999e+00   2.700088461243974e+00   1.017689564000000e+01 -1.00631290e+00  -2.28450430e-01   3.69414310e-01
C     8.529583273349999e+00   3.425352667924388e+00   1.008817794400000e+01  5.58662110e-01  -1.69453234e+00  -5.61025520e-01
C     9.900145544625000e+00   4.399029455288669e+00   6.861308255999999e+00 -1.15631791e+00  -9.04711960e-01  -9.64827760e-01
C     3.727202978850000e+00   5.089940838552571e+00   6.908424367999999e+00  7.22700560e-01   3.34625970e-01  -4.95249700e-02
C     3.639225366374999e+00   4.812713644521783e+00   1.011503794400000e+01 -2.20884521e+00   1.36603318e+00   3.95290900e-01
C     4.857395175150000e+00   5.531427320092674e+00   1.019364186400000e+01 -9.66185590e-01   1.39301018e+00  -6.72440250e-01
C     4.970036776500000e+00   4.390882406737227e+00   6.827058288000001e+00 -4.07800260e-01  -4.57742760e-01  -1.21910210e-01
C     6.198279092925000e+00   5.131039843156227e+00   6.863241088000000e+00 -2.83302670e-01  -3.00857741e+00  -2.00394610e-01
C     6.066276346275000e+00   4.855830054393919e+00   1.018532723200000e+01 -7.54210100e-02  -2.60071960e+00   3.13573110e-01
C     7.276515054524999e+00   5.529633423423510e+00   1.018508991200000e+01  1.54086300e+00   1.35764547e+00  -3.46887100e-01
C     7.413313384724999e+00   4.348656893175995e+00   6.846728240000000e+00  7.53386640e-01   3.24844971e+00  -9.45741300e-02
C     8.648771631224999e+00   5.120655851376866e+00   6.896118680000000e+00  2.30826510e-01  -1.97743319e+00  -1.42934240e-01
C     8.538748599375001e+00   4.819357421625748e+00   1.014981042400000e+01 -9.62213650e-01   9.75235370e-01   3.94483700e-01
C     9.741512108849999e+00   5.532307777463267e+00   1.022222716000000e+01  2.03247909e+00  -2.05914520e-01  -6.11584240e-01
