72
Lattice="7.395 0 0 3.6975 6.40425786098592 0 0 0 13.6 " PBC="1 1 1" Properties=species:S:1:pos:R:3:force:R:3 Energy="-578.61695052"
C     3.690618952500000e+00   6.277505428860667e+00   1.353787574400000e+01  1.64708200e-02  -1.84077683e+00  -4.51810660e-01
C     1.220890836000000e+00   5.521425790592712e-01   1.355787005600000e+01  4.30822140e-01  -1.53193984e+00  -1.49696400e-02
C     1.341411218250000e+00   9.906533862273048e-01   3.572107184000000e+00  1.09928244e+00  -1.70567997e+00  -2.82110280e-01
C     2.612089520325000e+00   1.623533995829546e+00   3.629319800000000e+00 -2.00664721e+00   3.58607972e+00  -8.25314940e-01
C     6.147739481399999e+00   6.222277030353385e+00   1.353895055200000e+01  4.73404830e-01   2.11041327e+00  -2.57125860e-01
C     3.690989848725000e+00   5.648337047326975e-01   1.350472996000000e+01 -1.86606700e-02  -6.36707370e-01   6.13503000e-02
C     3.801689338200000e+00   9.240809976874476e-01   3.574124471999999e+00  2.03550371e+00   4.38626344e+00   4.36985870e-01
C     5.048040456675000e+00   1.667218591459021e+00   3.611499448000000e+00  5.14908310e-01  -1.12778220e-01  -1.06513291e+00
C     8.617425446399999e+00   6.204167069976876e+00   1.352663480000000e+01 -1.18263450e+00   1.72162775e+00  -6.56414970e-01
C     6.148427771024999e+00   4.831380455119218e-01   1.355134885600000e+01 -2.26741460e-01   3.35288464e+00   2.37734120e-01
C     6.326487465075000e+00   9.366043318049418e-01   3.518280424000000e+00 -2.83502261e+00   9.21515140e-01   4.92164730e-01
C     7.506683726999999e+00   1.667976407291594e+00   3.522948216000000e+00  1.61390720e+00   1.07328843e+00   1.69311600e-01
C     1.248122738625000e+00   1.902634499326961e+00   1.358538476000000e+01 -1.71922494e+00   5.13903578e+00  -2.77383890e-01
C     2.466669322650000e+00   2.680469337502757e+00   1.356043542400000e+01 -7.65848930e-01  -1.34182030e-01  -6.17443190e-01
C     2.604179717400000e+00   3.110192734375928e+00   3.562135800000000e+00 -4.45456200e-02  -8.52364680e-01   5.12796220e-01
C     3.835059201750000e+00   3.846841341956013e+00   3.629027128000000e+00 -1.32562760e+00  -1.98502324e+00  -1.13623784e+00
C     3.695810316449999e+00   2.010941707190816e+00   1.347674891200000e+01 -1.01962425e+00  -2.31674826e+00   1.31998682e+00
C     4.882134186300000e+00   2.690588705347343e+00   5.016645600000000e-02  2.07297185e+00  -8.10164650e-01  -8.65645650e-01
C     5.043315680250000e+00   3.132396552546862e+00   3.559601032000000e+00 -4.41981690e-01  -3.80601000e+00   1.04200562e+00
C     6.270811582349999e+00   3.706374704950118e+00   3.604933776000000e+00  2.84129726e+00   5.73960691e+00  -6.73947340e-01
C     6.133844313375000e+00   1.950314967605605e+00   2.702401600000000e-02  2.29625040e-01   5.64514670e-01  -2.35813180e-01
C     7.351509894074999e+00   2.718222885885507e+00   1.357364809600000e+01  1.43937346e+00  -2.15830453e+00   7.82823670e-01
C     7.554472805249999e+00   3.097405096536551e+00   3.549293456000000e+00 -2.86141139e+00  -1.59495911e+00  -9.01710500e-02
C     8.734425623775000e+00   3.832624337804863e+00   3.513330976000000e+00  1.84546706e+00  -1.50182478e+00   8.06441910e-01
C     2.450544636075000e+00   4.092416644280164e+00   1.350411782400000e+01 -8.67587110e-01   1.56625838e+00  -5.49370400e-01
C     3.680984080950000e+00   4.861354431266534e+00   1.346549708800000e+01 -7.27131100e-02  -2.57883209e+00   1.13769743e+00
C     3.820216105650000e+00   5.215500540708058e+00   3.517468504000000e+00  1.24761501e+00   1.78238838e+00   4.58534040e-01
C     5.056282221149999e+00   5.966028712092649e+00   3.532679560000000e+00  5.04002200e-01  -9.03070570e-01   1.51699310e-01
C     4.893428421899999e+00   4.072230999888652e+00   2.205892800000000e-02  7.44506410e-01   3.36703796e+00  -7.95699870e-01
C     6.151347021225000e+00   4.845442988570785e+00   1.355920013600000e+01 -9.98295300e-01  -1.99778121e+00   8.87224870e-01
C     6.316697853150000e+00   5.254995214675207e+00   3.571796288000000e+00 -2.08810249e+00  -1.63446238e+00  -1.05739750e-01
C     7.504525052549999e+00   6.009724707301115e+00   3.552042288000000e+00  1.28905194e+00  -6.50114172e+00   5.04569730e-01
C     7.395432977250000e+00   4.173286858705365e+00   1.155265600000000e-02 -3.19644458e+00  -3.57559172e+00  -1.04590449e+00
C     8.551432429425001e+00   4.821191216821379e+00   1.343005494400000e+01  4.69571897e+00  -1.83021260e-01   1.33919665e+00
C     8.740887300824999e+00   5.207728653582055e+00   3.611773624000000e+00  6.13104830e-01   3.09253255e+00  -1.17742648e+00
C     1.001577051082500e+01   5.917629750124693e+00   3.531042256000000e+00 -2.01580151e+00  -2.39230400e-02   2.91683230e-01
C     7.415978209950000e+00   1.411620113243340e-01   7.073456695999999e+00  2.02054190e-01   4.67158530e-01  -6.92667120e-01
C     1.271343926025000e+00   8.422665394833692e-01   6.985818432000000e+00 -1.76560668e+00   1.82110220e+00  -7.56371500e-02
C     1.078632925200000e+00   4.652959752416976e-01   9.899014048000000e+00  1.92703210e+00   7.17274520e-01   9.55568580e-01
C     2.348033593125000e+00   1.183394970143186e+00   9.987577111999999e+00 -8.26366370e-01  -6.06432100e-02  -1.63553000e-03
C     2.466835525275000e+00   1.797852579244722e-01   6.841668496000000e+00  1.71180198e+00  -2.54819186e+00   3.10729840e-01
C     3.748247743800000e+00   8.462959064011453e-01   6.796971144000000e+00 -1.88238409e+00  -5.44371700e-02   3.78872360e-01
C     3.592777926000000e+00   4.958339103361644e-01   1.010499883200000e+01 -3.81932238e+00  -1.55905530e+00  -6.45045210e-01
C     4.733622952575000e+00   1.174471021070747e+00   9.995035896000001e+00  5.85061521e+00   2.15625589e+00  -1.93752100e-02
C     4.959263666550000e+00   1.790706067898748e-01   6.918411664000001e+00  6.58875410e-01  -2.18303309e+00   2.69295380e-01
C     6.173181904950000e+00   9.108326375376229e-01   7.050225040000000e+00  4.89463840e-01  -4.22814588e+00  -7.55737060e-01
C     6.062143428674999e+00   4.458062175092526e-01   9.953413776000000e+00 -1.60894602e+00   2.19435882e+00   2.71691110e-01
C     7.274119592174999e+00   1.207692340208554e+00   9.895867144000000e+00 -9.91837350e-01  -7.27361410e-01  -1.28090550e-01
C     8.637861750750000e+00   2.303258805719071e+00   7.010736351999999e+00  9.81891900e-01  -1.49514437e+00  -1.19894073e+00
C     2.482168798950000e+00   3.002165328537976e+00   6.860153344000000e+00 -3.13937910e-01  -2.36564401e+00   8.54463760e-01
C     2.344314388800000e+00   2.602085832362016e+00   9.930150160000000e+00 -2.29405130e-01  -5.64903550e-01   3.36129730e-01
C     3.549615307650000e+00   3.324320761032071e+00   9.878600175999999e+00  1.47723928e+00   7.25493140e-01   5.55639190e-01
C     3.694714377450000e+00   2.230048788162796e+00   6.815294696000000e+00  1.75741574e+00   3.82939686e+00   8.20348700e-02
C     4.946822836199999e+00   3.040743168949886e+00   6.867322176000000e+00 -4.00037130e-01  -4.04976674e+00   5.84864900e-02
C     4.803962306850000e+00   2.642938849421271e+00   9.913171512000000e+00 -6.29450810e-01  -1.51242704e+00   1.00626330e-01
C     6.079100422500000e+00   3.346327584231231e+00   9.909942191999999e+00 -2.38857257e+00  -2.87832879e+00  -2.61999670e-01
C     6.184450479900000e+00   2.247040437031790e+00   6.946060463999999e+00 -3.41850430e-01   4.67460038e+00  -1.50289610e-01
C     7.429784046375000e+00   2.971530112766616e+00   6.970544815999999e+00 -1.46127733e+00   1.85928195e+00  -2.02741740e-01
C     7.270334165625000e+00   2.637609802413386e+00   9.844704216000000e+00  1.10576843e+00  -1.61866344e+00   1.38925958e+00
C     8.504484088725000e+00   3.287619176045404e+00   9.974784136000000e+00 -5.54381560e-01   2.68043975e+00  -4.59901230e-01
C     9.863349244799998e+00   4.365709446537239e+00   7.004078335999999e+00  1.50310376e+00   3.05327890e+00  -8.63377010e-01
C     3.751571796300000e+00   5.130823827538610e+00   6.998805615999999e+00 -2.84906070e+00  -1.86987210e-01  -1.32739000e-02
C     3.551283767550000e+00   4.776147317461120e+00   9.872272367999999e+00  2.01366455e+00  -2.57780180e+00   5.45032860e-01
C     4.780038927225000e+00   5.454752919247031e+00   9.930543064000000e+00  9.97376260e-01  -7.67287470e-01  -2.41084020e-01
C     4.955531003325000e+00   4.425997144711342e+00   6.926603896000000e+00 -2.37064100e-02   2.05704250e-01  -2.81817480e-01
C     6.169532398499999e+00   5.124980710752302e+00   6.892504887999999e+00  3.98230440e-01   1.98778216e+00  -2.95904710e-01
C     6.034296299025000e+00   4.681634368687076e+00   9.941307600000000e+00 -2.90248700e-01   5.64229305e+00   9.01913760e-01
C     7.245600626774999e+00   5.472004837155457e+00   1.009158692000000e+01  4.11014780e-01  -1.33433277e+00  -5.26431070e-01
C     7.397304873600000e+00   4.456704088170734e+00   6.902400520000000e+00  6.27972900e-01  -2.69556999e+00   1.99545200e-01
C     8.641673022825000e+00   5.106353606553600e+00   6.960195352000000e+00  4.35317800e-01   1.75772898e+00  -1.56371420e-01
C     8.458920276899999e+00   4.761367827342126e+00   1.004122299200000e+01  2.35818939e+00  -1.09973558e+00  -1.73633860e-01
C     9.786205233375000e+00   5.454283871401366e+00   9.967852624000001e+00 -4.57510421e+00   7.78067070e-01   4.10967910e-01
