72
Lattice="7.395 0 0 3.6975 6.40425786098592 0 0 0 13.6 " PBC="1 1 1" Properties=species:S:1:pos:R:3:force:R:3 Energy="-581.71132875"
C     3.705042012599999e+00   6.266953645525373e+00   5.142051200000000e-02 -7.78998290e-01  -1.97790873e+00   7.04352960e-01
C     1.219733333625000e+00   5.473261288505010e-01   6.179622400000000e-02  9.19409340e-01   6.21063960e-01  -2.25983000e-01
C     1.333528407075000e+00   9.216059441522934e-01   3.354629992000000e+00  6.37141300e-02  -3.18911670e-01  -1.27230730e-01
C     2.556151595775000e+00   1.626866643534733e+00   3.232570536000000e+00  3.60547000e-03   8.28407590e-01   6.09239600e-01
C     6.156276897974999e+00   6.255609079109591e+00   1.354897280000000e-01  2.27797000e-02  -6.43504320e-01  -1.56072010e-01
C     3.696506962425000e+00   5.530703638954495e-01   7.962473599999999e-02 -7.95297720e-01   1.30384710e-01   4.24493820e-01
C     3.765637086300000e+00   9.087243558501108e-01   3.299839400000000e+00  2.08009420e-01  -5.76011810e-01   1.55221570e-01
C     4.991261979450000e+00   1.594820954012286e+00   3.364993736000000e+00  1.20448140e+00   5.14011910e-01   6.51518110e-01
C     8.594852726549998e+00   6.221306529117280e+00   1.719604400000000e-01  1.18814496e+00   1.50570722e+00  -1.25602230e-01
C     6.165463188824999e+00   5.223486266004006e-01   1.665532160000000e-01 -1.15057278e+00   4.49479870e-01  -6.22100780e-01
C     6.251730707549999e+00   9.212400689007516e-01   3.488156424000000e+00  4.31860350e-01  -1.48983792e+00  -4.04959600e-01
C     7.507318883549999e+00   1.639983140015220e+00   3.395472424000000e+00 -1.49147062e+00  -3.05165158e+00   2.59388200e-01
C     1.225780188150000e+00   1.964881131895282e+00   1.359217415200000e+01  3.34225200e-02   7.72090660e-01   5.09989570e-01
C     2.481602415900000e+00   2.685112936791886e+00   1.354102332800000e+01 -2.26949908e+00   1.16548523e+00   4.54234440e-01
C     2.573843467725000e+00   3.081690136471947e+00   3.258606920000000e+00 -1.69742934e+00  -6.39139220e-01   2.06265240e-01
C     3.788005962974999e+00   3.790348935074902e+00   3.362096528000000e+00  8.97711670e-01  -2.05664518e+00   4.24800400e-01
C     3.687177578325000e+00   1.989820913066587e+00   2.089939200000000e-02 -1.44520550e-01  -1.08851351e+00  -2.33107170e-01
C     4.893490909650000e+00   2.671678725078964e+00   1.037783360000000e-01  1.68260929e+00   3.87555660e-01   2.95947560e-01
C     4.998859232699999e+00   3.003481915868834e+00   3.435904544000000e+00  9.84215090e-01   1.98927530e+00  -7.99981370e-01
C     6.282488620124999e+00   3.722711262282613e+00   3.416606144000000e+00 -2.55868092e+00   9.47035700e-02  -4.61676100e-02
C     6.127416838199999e+00   1.936892347599409e+00   1.661661600000000e-01  1.04763907e+00   1.12238289e+00  -2.28470020e-01
C     7.381234133549999e+00   2.672671385047264e+00   1.273676720000000e-01 -5.01078320e-01   5.82573920e-01  -4.50214970e-01
C     7.465312288574999e+00   2.990260389559443e+00   3.333106768000000e+00  1.97106218e+00   3.76279970e+00   8.05596100e-02
C     8.697404368050000e+00   3.774097298201631e+00   3.292146288000000e+00  8.01992400e-01  -4.62678370e-01   3.87584140e-01
C     2.411916225000000e+00   4.144053599022137e+00   1.359146708800000e+01  1.89223066e+00  -1.60181515e+00   5.93221990e-01
C     3.684970799400000e+00   4.816302782754263e+00   3.868438400000000e-02  8.63350000e-04   4.77620100e-01   1.51728500e-01
C     3.801760958775000e+00   5.177238750421538e+00   3.487874904000000e+00  3.44962760e-01   5.54352580e-01  -3.52681510e-01
C     5.023591773225000e+00   5.904310815053251e+00   3.419455616000000e+00  1.03376757e+00  -7.29862380e-01   5.06145300e-02
C     4.927847968725000e+00   4.088578188289195e+00   1.408184800000000e-01 -7.97640520e-01   6.58459270e-01  -2.86196790e-01
C     6.166289062424999e+00   4.814064046334143e+00   2.412452320000000e-01 -1.90111370e+00   1.25826451e+00  -9.63512880e-01
C     6.276801236550000e+00   5.158607547497805e+00   3.376341712000000e+00 -5.68329520e-01   3.44701130e-01   2.01049860e-01
C     7.504338365775000e+00   5.893741996392050e+00   3.359132000000000e+00 -1.39998726e+00   4.07263240e-01  -2.77739100e-02
C     7.361308786724999e+00   4.148915263291399e+00   1.596332640000000e-01  1.04192221e+00  -3.14412653e+00   3.95633530e-01
C     8.584096292324999e+00   4.832662907755683e+00   1.788386400000000e-01  5.05439130e-01  -5.39313250e-01  -1.10710573e+00
C     8.725549664099999e+00   5.220158869790264e+00   3.407295992000000e+00 -7.36999000e-02  -2.71766416e+00  -6.78948500e-02
C     9.968065957424999e+00   5.845245625662043e+00   3.529458536000000e+00 -2.37807080e-01   3.36208748e+00  -6.59533660e-01
C     7.438870467750000e+00   1.224579919887324e-01   6.800121311999999e+00 -1.02730391e+00   2.26642830e-01   6.13407500e-02
C     1.255402931250000e+00   8.544969428463469e-01   6.749554200000000e+00  3.07150990e-01  -7.43742610e-01  -2.53401000e-03
C     1.139389912425000e+00   5.568265892154967e-01   1.018791476800000e+01 -7.66878780e-01  -6.54504350e-01  -4.89081610e-01
C     2.384605306800000e+00   1.258446403961947e+00   1.000479960800000e+01 -2.03743307e+00  -4.45428830e-01   5.69712590e-01
C     2.497308397575000e+00   1.125474669929610e-01   6.790659928000000e+00 -3.66338150e-01   2.28841005e+00  -1.32946070e-01
C     3.756284925600000e+00   7.988917178065824e-01   6.771491544000000e+00 -6.95891190e-01   1.40075445e+00   1.40864530e-01
C     3.562936438800000e+00   5.463863040095460e-01   1.002184231200000e+01  2.51835918e+00  -8.18661510e-01   9.42709630e-01
C     4.812214978949999e+00   1.251623563808218e+00   1.014373476000000e+01  1.10275590e-01   2.14360460e-01  -3.61216300e-01
C     4.996811298374999e+00   1.373863811029710e-01   6.886094528000000e+00 -1.03065918e+00  -8.51146590e-01  -6.49468280e-01
C     6.195298353299999e+00   8.528049379197348e-01   6.834019176000000e+00  1.33652099e+00   3.83392540e-01  -1.94375460e-01
C     6.074951124975000e+00   5.524842462161021e-01   1.024459100000000e+01 -6.39453090e-01   1.01629652e+00  -3.54524290e-01
C     7.301768942549999e+00   1.288820646225513e+00   1.024214721600000e+01  5.76349140e-01  -8.58412690e-01  -1.14062020e-01
C     8.635375625700000e+00   2.277278012432623e+00   6.686617751999999e+00 -1.03876430e-01  -9.91623050e-01   3.32973170e-01
C     2.468773015275000e+00   2.924762251233022e+00   6.702376208000000e+00  1.66641755e+00   1.51743620e+00  -3.00776060e-01
C     2.376822586949999e+00   2.646758476894131e+00   9.992206960000001e+00 -7.56606190e-01   2.85846448e+00   7.00624220e-01
C     3.605234507700000e+00   3.408823278387727e+00   1.006407316800000e+01 -9.67095260e-01  -1.21079586e+00   2.50133900e-02
C     3.743188750350000e+00   2.243916952388311e+00   6.693899192000000e+00 -1.36990669e+00  -1.28967437e+00   5.51075490e-01
C     4.947222461999999e+00   2.945379414519142e+00   6.763423752000000e+00  5.13650100e-01   2.19153905e+00  -3.39260000e-03
C     4.816106708625000e+00   2.687288783399821e+00   1.012246776000000e+01  1.23737455e+00  -3.57476520e-01   2.99005700e-01
C     6.086290174275000e+00   3.391579237716470e+00   1.020572233600000e+01 -1.76060006e+00   3.91547420e-01   1.15178460e-01
C     6.192184947374999e+00   2.289053969657855e+00   6.773884192000000e+00  1.08123980e-01  -1.21984309e+00  -2.11111700e-02
C     7.422349815900001e+00   3.006084862433453e+00   6.716302472000000e+00 -6.77609950e-01  -3.53797810e-01   3.02003100e-01
C     7.312088960850000e+00   2.716617274397427e+00   1.022146868800000e+01 -1.09561276e+00  -1.48371236e+00  -3.61670310e-01
C     8.497066792799998e+00   3.402296186861972e+00   1.010967736800000e+01  3.12382021e+00   2.56592210e-01   2.04030880e-01
C     9.884738653725000e+00   4.354131765135353e+00   6.734769368000000e+00 -8.79031450e-01   8.63106860e-01   6.55036700e-01
C     3.705795378225000e+00   5.089150104834596e+00   6.796047295999999e+00  3.58756520e-01   4.08730390e-01  -1.39107970e-01
C     3.596201774025000e+00   4.818642194107943e+00   1.016837197600000e+01 -1.15460239e+00  -1.49011000e-01  -1.43456640e-01
C     4.794024794925000e+00   5.495307497890010e+00   1.019773492000000e+01  2.14196914e+00   2.32213390e+00   9.78319400e-02
C     4.939243737675000e+00   4.410721965033985e+00   6.808478512000001e+00 -3.64468420e-01  -1.27471858e+00  -1.94594350e-01
C     6.138231471075000e+00   5.148048399265972e+00   6.835056720000000e+00  1.62541950e+00  -2.59860680e+00  -2.45820030e-01
C     6.055515549000000e+00   4.810954715100535e+00   1.021189292800000e+01 -4.51595880e-01  -4.33903990e-01  -4.34205080e-01
C     7.271023860300000e+00   5.521865250767066e+00   1.014871004800000e+01  6.36321280e-01   6.31968860e-01   5.38132700e-02
C     7.396616916749999e+00   4.410009235176746e+00   6.783782680000000e+00  5.30107340e-01   1.26144463e+00   2.34065090e-01
C     8.658334697324999e+00   5.117795709816590e+00   6.839865951999999e+00 -4.48563000e-03  -1.25496499e+00  -4.94162760e-01
C     8.524438904625001e+00   4.833094426650290e+00   1.017851064000000e+01 -3.71401200e-02  -3.48232000e-02  -4.58086610e-01
C     9.772130218950000e+00   5.558908887166035e+00   1.018505958400000e+01 -6.75887590e-01  -1.28736089e+00   1.49886960e-01
