72
Lattice="7.395 0 0 3.6975 6.40425786098592 0 0 0 13.6 " PBC="1 1 1" Properties=species:S:1:pos:R:3:force:R:3 Energy="-564.42945864"
C     3.624559232625000e+00   6.253893634599211e+00   5.720826400000000e-02  8.91920350e-01  -3.29391611e+00   2.27288900e-01
C     1.223619886800000e+00   3.949257337057032e-01   1.351832628800000e+01 -1.09455291e+00   9.77850350e-01   9.15993190e-01
C     1.338914814150000e+00   1.072308186282934e+00   3.258973712000000e+00  4.74351855e+00  -2.24274969e+00   9.12518780e-01
C     2.711580149475000e+00   1.593287710638023e+00   2.991356448000000e+00 -1.91510684e+00   6.54441379e+00   2.19787572e+00
C     6.134077255875000e+00   6.135425367172101e+00   2.060958960000000e-01  8.45196030e-01   1.33870048e+00  -1.07796540e-01
C     3.689258827125000e+00   4.431627960349590e-01   2.399834240000000e-01 -1.93624875e+00   1.02941987e+00  -1.05410201e+00
C     3.942147305999999e+00   1.053591102261298e+00   3.376149816000000e+00  5.36169100e-01   5.66401610e+00  -1.29953000e-01
C     5.176540635525000e+00   1.796623922374281e+00   3.623077264000000e+00 -9.71280740e-01   1.21368784e+00  -2.19101060e-01
C     8.583112313625000e+00   6.122912728165233e+00   3.026300560000000e-01  7.75627310e-01   5.45906851e+00  -2.54635930e-01
C     6.076059820350000e+00   4.361981015696304e-01   2.160860480000000e-01  2.13232954e+00   4.15829355e+00   1.04837246e+00
C     6.418018855724999e+00   1.086069847700238e+00   3.833137423999999e+00 -1.82906540e+00  -1.30046820e-01  -1.48872569e+00
C     7.591033241550000e+00   1.791731773837606e+00   3.426554680000000e+00 -1.25773006e+00   1.16454500e-01   4.67732370e-01
C     1.224977460900000e+00   1.748279652768449e+00   1.338776288800000e+01 -7.69901380e-01   6.50026890e+00   2.15647399e+00
C     2.453458968600000e+00   2.552032970801715e+00   1.314744313600000e+01 -7.74192470e-01   6.82483470e-01   3.11690773e+00
C     2.735389202400000e+00   3.159646285485690e+00   3.168277352000000e+00 -1.20064201e+00   8.69677230e-01   1.17577598e+00
C     3.865388795925000e+00   4.003492371127650e+00   3.615330840000000e+00  5.27024550e-01  -5.42318502e+00  -1.07123943e+00
C     3.669020043225000e+00   1.858017956093700e+00   1.356128120800000e+01  2.17155890e-01   5.38911930e-01  -4.26716250e-01
C     4.845758477100000e+00   2.607454137470583e+00   2.618934320000000e-01  1.62073449e+00  -5.28488700e-01   6.68990250e-01
C     5.125659559875000e+00   3.284825254511401e+00   3.645737720000000e+00  7.07125140e-01  -2.98603589e+00  -1.11656753e+00
C     6.395760016650000e+00   3.840550183289820e+00   3.484790288000000e+00 -2.52315750e-01   5.41670336e+00   1.01565871e+00
C     6.135408688650000e+00   1.897654868627918e+00   5.361642240000000e-01 -4.36315190e-01   3.44981320e-01  -2.35485462e+00
C     7.403789660025000e+00   2.644107178182670e+00   4.962015760000000e-01  6.43218270e-01  -1.03599780e+00  -3.22161945e+00
C     7.607709484199999e+00   3.167920074300181e+00   3.247209712000000e+00  1.92213490e-01   1.85962043e+00   9.07968130e-01
C     8.876773125000000e+00   3.928910497495183e+00   3.249009944000000e+00 -5.27112100e-01  -1.10055991e+00  -2.27121900e-02
C     2.403338209875000e+00   4.022993592481664e+00   1.333655208800000e+01  1.42635428e+00   1.12262098e+00   2.43350015e+00
C     3.676672093425000e+00   4.838202334634269e+00   1.359876471200000e+01 -9.06282920e-01  -4.82448220e+00  -4.98447820e-01
C     3.804251003175000e+00   5.310935830699099e+00   3.971541360000000e+00  4.51960486e+00   2.37548224e+00  -1.53075516e+00
C     5.064873510300000e+00   6.157626303426999e+00   3.749461520000000e+00  1.76628291e+00  -4.11107006e+00  -1.01411736e+00
C     4.889470248149999e+00   4.001526584177522e+00   2.550236640000000e-01  4.18208930e-01   3.69508299e+00   4.17252590e-01
C     6.184321769924999e+00   4.826348437590880e+00   5.812906560000001e-01 -1.69735285e+00  -3.36332326e+00  -1.92059013e+00
C     6.390715369500000e+00   5.411859057335532e+00   3.579522040000000e+00 -1.59560452e+00  -7.98765880e-01  -1.20801260e-01
C     7.616687716724998e+00   6.183488169644987e+00   3.501859920000000e+00  3.98429700e-02  -1.04687734e+01   2.02953930e-01
C     7.490839126050000e+00   4.233048831351740e+00   5.317931840000000e-01 -7.08162068e+00  -8.66036480e+00   7.26041700e-01
C     8.606873520899999e+00   4.813410107564058e+00   2.844280880000000e-01  5.60602326e+00  -4.04149537e+00  -3.28193359e+00
C     8.842960707674999e+00   5.350998818508744e+00   3.492324144000000e+00  5.01711870e-01   3.05531180e-01   1.49338510e+00
C     1.006929925530000e+01   6.011316421549640e+00   3.917464632000000e+00 -3.92267824e+00   2.61364815e+00  -2.17269839e+00
C     7.395718683075000e+00   2.320113403469862e-01   6.831499232000001e+00 -1.46898958e+00   5.98963000e-02  -9.37142250e-01
C     1.243735100250000e+00   8.934413629781641e-01   6.580254463999999e+00 -2.26494718e+00   2.38170775e+00   2.77193710e-01
C     1.081670828175000e+00   3.857195489893747e-01   1.014755459200000e+01  9.75713090e-01  -6.65168760e-01  -2.05632960e-01
C     2.327596882050000e+00   1.071977470407043e+00   9.742263848000000e+00 -2.38436122e+00   7.17167770e-01   1.02718899e+00
C     2.436076540425000e+00   2.522826096660870e-01   6.754640056000000e+00 -5.19468760e-01  -3.21200040e+00  -5.23004270e-01
C     3.592125576074999e+00   9.955507862554255e-01   6.739384120000000e+00  6.84952210e-01  -8.22491640e-01  -4.89724950e-01
C     3.539995521899999e+00   3.686262645481416e-01   9.798082192000001e+00 -6.87706130e-01  -8.90214320e-01   1.23965868e+00
C     4.714511203650000e+00   1.066499140148442e+00   9.960608175999999e+00  4.31584338e+00   1.22499117e+00   1.13710725e+00
C     4.774620832575000e+00   3.234259732109406e-01   6.823951640000000e+00  2.48366771e+00  -4.37238289e+00  -8.40159500e-02
C     6.008515628175000e+00   9.814442555523607e-01   6.762390968000000e+00  3.45413395e+00  -5.88881232e+00   6.40987700e-01
C     6.036679633575000e+00   2.568065774183910e-01   1.036352721600000e+01 -1.56909258e+00   2.88330117e+00  -1.65575255e+00
C     7.235021820449999e+00   1.106861334885306e+00   1.037471716000000e+01 -2.67174130e-01  -2.63098671e+00  -8.52696270e-01
C     8.629313907224999e+00   2.354352167053887e+00   6.348423288000000e+00  6.60712060e-01  -1.58841384e+00   1.63664704e+00
C     2.460888873000000e+00   3.123817024462134e+00   6.408235815999999e+00 -1.38658991e+00  -4.94268980e-01   5.88553540e-01
C     2.259699430725000e+00   2.493732257671255e+00   9.623664639999999e+00  6.93560990e-01   1.86616600e-01   1.69896312e+00
C     3.531112980675000e+00   3.280989616393890e+00   9.721501135999999e+00  6.98268910e-01  -1.98815600e+00   9.38834730e-01
C     3.626303676150000e+00   2.345552268456197e+00   6.544116816000000e+00  2.09505818e+00   4.31369832e+00   8.60260000e-02
C     4.892465334075000e+00   3.094741757820313e+00   6.600306576000000e+00  1.24561358e+00  -2.18298814e+00   6.59600940e-01
C     4.782226774950000e+00   2.612922861342394e+00   9.905300512000000e+00 -5.97271200e-02  -3.96782698e+00   1.06656380e+00
C     6.071337484274999e+00   3.274721641141150e+00   1.028624671200000e+01 -4.66464702e+00  -6.09420026e+00  -8.07584480e-01
C     6.126832226475000e+00   2.277136670461653e+00   6.669431296000000e+00 -9.08640870e-01   5.58687992e+00  -5.08577590e-01
C     7.404254694600000e+00   2.912442060174847e+00   6.569821224000000e+00 -1.47827342e+00   5.02841922e+00   4.29850890e-01
C     7.215015794174999e+00   2.537714907461534e+00   1.031743056000000e+01  1.56629510e-01  -4.33302853e+00  -5.82677520e-01
C     8.370833773049998e+00   3.098333713926251e+00   9.948268759999999e+00  4.21463394e+00   5.01466758e+00  -3.22726630e-01
C     9.868354069875000e+00   4.516057789378536e+00   6.638314904000000e+00 -4.45275230e-01   1.31430717e+00   7.79052710e-01
C     3.790623719025000e+00   5.221786127669912e+00   6.817969544000000e+00 -3.26378675e+00  -2.01334720e-01  -5.96925970e-01
C     3.606696573150000e+00   4.648475875318876e+00   1.008622185600000e+01  5.25612690e-01  -2.40109159e+00  -4.75279270e-01
C     4.826496683625000e+00   5.302576865255070e+00   1.022976060800000e+01 -5.82865370e-01   2.26103266e+00  -3.27484700e-01
C     5.038000634925000e+00   4.509413371848786e+00   6.716084328000000e+00 -7.13666926e+00  -2.47932512e+00  -2.09298750e-01
C     6.148311262800000e+00   5.180086147508673e+00   6.752907280000000e+00  4.97800696e+00   2.99002705e+00   7.22180920e-01
C     6.035978402700000e+00   4.553815052230845e+00   1.027223313600000e+01 -4.73080570e-01   8.62813018e+00  -1.21933174e+00
C     7.187403862500000e+00   5.360447852683124e+00   1.007040804800000e+01  2.79759757e+00  -1.13312612e+00   4.27585000e-03
C     7.372721046525000e+00   4.439999542181604e+00   6.750122136000000e+00 -3.48400510e-01  -1.54927592e+00  -9.30600820e-01
C     8.514966353325001e+00   5.207861221719757e+00   6.778174992000000e+00  3.72039542e+00   1.16503884e+00  -3.13627430e-01
C     8.394482169600000e+00   4.599028216126344e+00   1.001377397600000e+01  2.94837169e+00  -5.66181150e-01   4.93934740e-01
C     9.808593447974999e+00   5.233596603845010e+00   1.020170040800000e+01 -6.66257368e+00   3.85998745e+00  -4.66695420e-01
