72
Lattice="7.395 0 0 3.6975 6.40425786098592 0 0 0 13.6 " PBC="1 1 1" Properties=species:S:1:pos:R:3:force:R:3 Energy="-572.32971931"
C     1.100426544825000e+01   6.388717928302710e+00   1.326973324800000e+01  1.87379680e+00  -1.50149759e+00   3.30203500e-01
C     1.251970172250000e+00   5.633141664702552e-01   1.320026349600000e+01 -2.44889683e+00   3.30712713e+00   5.29744600e-01
C     1.241477961375000e+00   7.839101733521059e-01   3.426826816000000e+00 -3.80476400e-01   8.62841250e-01   5.84461350e-01
C     2.510307291600000e+00   1.387198756745802e+00   3.386988744000000e+00  9.89928710e-01   3.53447095e+00   1.11754140e+00
C     6.249269503650000e+00   6.320198261117942e+00   1.328128767200000e+01 -7.19041347e+00  -6.21376490e-01   5.11744000e-01
C     3.676545010350000e+00   5.756923160620633e-01   1.327645260000000e+01  1.38685678e+00   5.06638998e+00  -3.54260800e-01
C     3.802525010175000e+00   8.455583280234090e-01   3.623212039999999e+00 -1.03879924e+00  -2.74452274e+00  -7.23753720e-01
C     5.064452106225000e+00   1.550796100162710e+00   3.696026712000000e+00 -3.39375817e+00   1.17325270e-01  -4.22804030e-01
C     8.542498529925000e+00   6.338344789806830e+00   1.321222211200000e+01  4.62225819e+00   1.67256425e+00   1.22766016e+00
C     6.044257770750000e+00   6.943831954923865e-01   1.334879684800000e+01  3.14101496e+00  -1.41088106e+00  -3.92729340e-01
C     6.219236485950000e+00   7.923750011785609e-01   3.698976960000000e+00 -7.11981800e-02   7.60021000e-02  -6.41528380e-01
C     7.390261912574999e+00   1.524167067895672e+00   3.501937576000000e+00  2.47297161e+00   5.76191990e-01   2.58987100e-02
C     1.195201086675000e+00   2.040294790538605e+00   1.316496972800000e+01  1.00334059e+00   8.64557770e-01   1.01647221e+00
C     2.494786665600000e+00   2.726898926136185e+00   1.294388418400000e+01 -1.89924700e+00   1.10852988e+00   1.96127052e+00
C     2.489775295950000e+00   2.830970293808857e+00   3.504417399999999e+00  2.18372074e+00   2.34181540e-01  -2.93858020e-01
C     3.640512540075000e+00   3.607206116882168e+00   3.661028880000000e+00  4.44295164e+00   7.65793180e-01   3.07604950e-01
C     3.696918900900000e+00   2.017811042256610e+00   1.317112386400000e+01 -3.49898400e-02   1.32718517e+00   4.01093840e-01
C     4.873793476725000e+00   2.795207188768995e+00   1.345146447200000e+01  1.25395039e+00  -1.79711930e-01  -3.96655000e-03
C     4.981262534399999e+00   2.958222385146429e+00   3.672063648000000e+00 -4.64718600e-02   8.44827120e-01  -5.67475790e-01
C     6.224802517574998e+00   3.702857294405669e+00   3.577715280000000e+00 -2.36222480e-01  -1.36571637e+00   3.47314520e-01
C     6.126822908774999e+00   2.033406498869546e+00   9.494159999999999e-04  3.39664860e-01   4.65802385e+00  -4.60814930e-01
C     7.428580584074999e+00   2.851855539328997e+00   8.315039999999999e-03 -6.75084660e-01  -2.09275092e+00  -1.83353555e+00
C     7.477052442674999e+00   2.962538534731175e+00   3.472942784000000e+00 -7.94153780e-01   5.17486300e-02   4.11266250e-01
C     8.799575388899999e+00   3.635007064295007e+00   3.502110568000000e+00 -6.69684447e+00  -1.61784900e-01  -3.70318780e-01
C     2.491839758100000e+00   4.182560736427273e+00   1.300492737600000e+01 -1.14062013e+00   3.80899260e-01   1.65155091e+00
C     3.647634442725000e+00   4.942205689088468e+00   1.323804660800000e+01  1.79375162e+00  -4.00024040e-01  -9.08522400e-02
C     3.662326200150000e+00   5.074740588692174e+00   3.787050696000000e+00  1.22542617e+00  -1.07016203e+00  -1.35289739e+00
C     4.913147559150000e+00   5.854791364130109e+00   3.672377672000000e+00  4.83380320e-01  -4.84149911e+00   3.58508000e-03
C     4.912191570525000e+00   4.243702250259272e+00   1.345414258400000e+01 -1.90662960e-01  -2.00680410e-01  -8.83849600e-02
C     6.197291194875000e+00   4.979442349819338e+00   1.356969743200000e+01 -1.93503448e+00  -1.86998694e+00  -6.03664180e-01
C     6.194999040675000e+00   5.103282892994887e+00   3.643878056000000e+00 -5.15157310e-01   1.51535608e+00  -3.46742600e-01
C     7.449158021999999e+00   5.786794412471873e+00   3.618882208000000e+00 -5.13217600e-02   3.69224410e-01  -3.20163210e-01
C     7.422143791200000e+00   4.357694517825450e+00   1.358444241600000e+01  2.06712800e+00  -4.99081069e+00  -8.22153070e-01
C     8.681689697249999e+00   5.004067938100031e+00   1.323950670400000e+01 -1.82202335e+00  -5.08561416e+00   2.67455510e-01
C     8.673792133050000e+00   5.052642825031402e+00   3.568729896000000e+00 -4.04914410e-01  -5.59376560e-01   4.32089860e-01
C     9.844742315550000e+00   5.759887563498870e+00   3.682047544000000e+00  1.92720281e+00   1.71201319e+00   3.04896490e-01
C     7.433000982299999e+00   1.039307301700668e-01   7.312133840000000e+00 -1.02877161e+00  -2.46564044e+00  -1.93726760e+00
C     1.223655752550000e+00   7.418710236946009e-01   6.949301208000000e+00  2.32498658e+00  -1.03037600e-01  -1.01507337e+00
C     1.123273212450000e+00   6.195327913278504e-01   1.016066975200000e+01  5.53793519e+00  -5.77347440e-01   6.58224510e-01
C     2.421218913150000e+00   1.363915436869986e+00   1.024099828800000e+01 -8.62391910e-01  -1.26426911e+00  -3.80938260e-01
C     2.460358466625000e+00   3.019588368216420e-02   6.670177799999999e+00 -3.00226820e-01   7.01555810e-01   7.82987930e-01
C     3.632144395050000e+00   8.313508021738920e-01   6.545978248000000e+00  1.36937562e+00  -1.04586985e+00   7.45997590e-01
C     3.646360912800000e+00   7.017834435347736e-01   1.051882452800000e+01 -1.95697280e-01  -2.20221386e+00  -1.55712972e+00
C     4.878053810175000e+00   1.405869537983110e+00   1.033992754400000e+01  1.50052170e-01  -1.98207126e+00  -1.67276950e-01
C     4.826535618299999e+00   1.050986106334164e-01   6.821641135999999e+00  2.49850780e+00  -1.70204574e+00   1.05845795e+00
C     6.127212921074999e+00   7.564825301299266e-01   7.127061368000000e+00 -7.98780560e-01  -9.84036310e-01  -8.93791240e-01
C     6.103565153100000e+00   5.642777511078708e-01   1.037282825600000e+01  1.76478830e-01   2.05987880e+00  -9.83989070e-01
C     7.365660152625000e+00   1.269680945227695e+00   1.011562668800000e+01 -4.66262354e+00   3.35831911e+00   1.17368041e+00
C     1.324089946725000e+00   2.130924645644395e+00   6.751348312000000e+00 -2.29532628e+00   2.26065671e+00   1.33908278e+00
C     2.482063309275000e+00   2.980184058327676e+00   6.603284975999999e+00  1.96404780e-01  -3.06002870e-01   1.07110853e+00
C     2.423560207125000e+00   2.734906874206908e+00   1.003090195200000e+01 -1.01445563e+00   1.94345855e+00   2.63828230e-01
C     3.631413510224999e+00   3.484123197411456e+00   9.937628391999999e+00  5.39570440e-01   6.17736070e-01   1.44025137e+00
C     3.694427562375000e+00   2.251107717156098e+00   6.476579896000000e+00  6.25704340e-01  -3.19044200e-01   1.30529050e+00
C     4.971412061625000e+00   2.847669460221386e+00   6.647853264000000e+00 -7.18560920e-01   3.02138104e+00   9.24957290e-01
C     4.844347511100000e+00   2.808035109390311e+00   1.004306552000000e+01  1.80040481e+00  -1.01150454e+00   9.11010640e-01
C     6.094843933799999e+00   3.534757373457711e+00   1.018590577600000e+01  6.03186560e-01  -2.56671807e+00   2.92112300e-02
C     6.138008474849999e+00   2.139063496745776e+00   6.964622695999999e+00  2.04587874e+00   5.48024810e-01  -4.60270530e-01
C     7.464066415950001e+00   2.810957244166672e+00   6.980658864000000e+00 -9.83280650e-01  -9.68058050e-01  -1.07406040e+00
C     7.327255144499999e+00   2.794959792287864e+00   1.018958716000000e+01 -1.09548774e+00  -2.93196155e+00  -6.74567980e-01
C     8.542372260299999e+00   3.449236066761685e+00   1.014995798400000e+01  1.17397212e+00   2.36446800e-02   3.50935670e-01
C     9.888460594200000e+00   4.402655097790951e+00   6.952829319999999e+00  1.15398530e+00  -1.62563781e+00  -4.36059010e-01
C     3.841269929475000e+00   5.032204212454420e+00   7.169366616000000e+00 -3.93865827e+00   1.52248710e+00  -1.52173639e+00
C     3.752118878400000e+00   4.920721261202948e+00   1.014265913600000e+01 -4.77706516e+00  -1.46347871e+00  -8.86284900e-02
C     4.940661618000000e+00   5.614396914286961e+00   1.018931176000000e+01 -1.11164182e+00   6.92212060e-01   5.12641200e-01
C     5.014007224649999e+00   4.366303505496333e+00   6.801638120000001e+00 -4.86698700e-01  -2.71789217e+00   4.06824090e-01
C     6.244781441175000e+00   5.033317272470487e+00   6.730908328000000e+00  2.45083410e-01  -1.93929089e+00   8.87427710e-01
C     6.147114899700000e+00   4.905034800085820e+00   1.037213900800000e+01 -1.88577054e+00   3.00689220e-01  -9.93947300e-01
C     7.299849126600000e+00   5.577325739579194e+00   1.058820547200000e+01  3.90384275e+00   2.40597106e+00  -1.12352384e+00
C     7.468265186025000e+00   4.170731623861803e+00   6.852925896000000e+00 -1.53482026e+00   5.00035437e+00  -5.73577380e-01
C     8.596230673874999e+00   5.021664084868432e+00   6.916145632000000e+00  1.39270779e+00   1.19495779e+00  -1.46304410e-01
C     8.533592435625000e+00   4.819938159728491e+00   1.042873282400000e+01  1.26819230e+00   2.35942539e+00  -3.40726020e-01
C     9.815139982649999e+00   5.556072953700469e+00   1.040113488800000e+01  4.48364390e-01   1.97770020e-01  -1.23023036e+00
