72
Lattice="7.395 0 0 3.6975 6.40425786098592 0 0 0 13.6 " PBC="1 1 1" Properties=species:S:1:pos:R:3:force:R:3 Energy="-573.85452967"
C     3.723222287325000e+00   6.112218898390606e+00   1.167788480000000e-01 -1.31419369e+00   5.06349164e+00  -5.22718040e-01
C     1.219674395475000e+00   5.408306743585746e-01   2.468400000000000e-03 -1.06454020e-01  -1.31852831e+00   8.86531770e-01
C     1.455837159150000e+00   9.982945624503853e-01   3.302259656000000e+00 -2.33245481e+00   6.99322920e-01   7.02031580e-01
C     2.619851940899999e+00   1.840637248559710e+00   3.108393424000000e+00 -2.65249390e-01  -3.47314504e+00   6.55203250e-01
C     6.128908779450000e+00   6.203334772625391e+00   2.122756000000000e-01 -8.32855600e-02   6.70860500e-02  -2.93583290e-01
C     3.635060058675000e+00   5.614924753219782e-01   2.071904240000000e-01  2.43939597e+00  -1.15408897e+00  -9.98407210e-01
C     3.814768911674999e+00   1.028975376537709e+00   3.264443088000000e+00  1.39095450e+00   3.51324910e-01   1.32885750e+00
C     5.049867798150000e+00   1.718762428291709e+00   3.553772752000000e+00  2.79164410e-01  -8.08506300e-02  -1.74185635e+00
C     8.652107145975000e+00   6.245204593705077e+00   3.099593680000000e-01 -3.00710494e+00  -1.90042902e+00  -9.98108260e-01
C     6.162966488924999e+00   5.297377312341115e-01   2.469366960000000e-01  1.08528439e+00  -2.24362813e+00  -3.18956360e-01
C     6.305385277950000e+00   1.014364638613326e+00   3.676810864000000e+00 -4.25863520e-01   2.27653138e+00  -7.73999240e-01
C     7.535510102550000e+00   1.663150030483141e+00   3.423027248000000e+00  2.63076569e+00   3.19616665e+00  -4.98183420e-01
C     1.182326243775000e+00   2.020050419102516e+00   1.354083592000000e+01  1.83191603e+00  -4.26337001e+00  -4.20886080e-01
C     2.386439895375000e+00   2.713230894968794e+00   1.339054164000000e+01  2.86232405e+00  -3.21874643e+00   6.04081360e-01
C     2.596943303175000e+00   3.245159330689076e+00   3.142006504000000e+00  2.85655511e+00  -1.44340149e+00   1.61550808e+00
C     3.895234239450000e+00   3.826085270316910e+00   3.549021048000000e+00 -3.03219905e+00   3.80080747e+00  -1.50608634e+00
C     3.694411404300000e+00   1.945183171739808e+00   1.345931344000000e+01 -1.11043828e+00   3.39410870e-01   2.66022768e+00
C     4.925626954425000e+00   2.636659154376648e+00   2.649726080000000e-01 -7.79469120e-01  -6.16510920e-01  -1.73001603e+00
C     5.101421264175000e+00   3.160758256777922e+00   3.436010488000000e+00 -1.52300233e+00  -2.93222360e+00   1.39679702e+00
C     6.273355351425000e+00   3.843415128043492e+00   3.484991432000000e+00  4.62580252e+00   6.43077580e-01  -4.63602030e-01
C     6.171581700899999e+00   1.927497813659418e+00   3.362396000000000e-01 -1.48641557e+00  -7.33325060e-01  -7.40927500e-01
C     7.381429768275000e+00   2.611032772720172e+00   1.920449200000000e-01 -1.29496530e+00  -9.24824600e-02   1.12768709e+00
C     7.574384693174999e+00   3.203957281576451e+00   3.296167808000000e+00 -3.10900662e+00  -4.06752019e+00   6.63484490e-01
C     8.764993004175000e+00   3.905045735048258e+00   3.184179560000000e+00  9.25746490e-01   5.16133000e-03   1.65180165e+00
C     2.469671544750000e+00   4.056971318515315e+00   1.353959872800000e+01 -2.46459769e+00   2.61011733e+00   9.85307800e-02
C     3.696347637150000e+00   4.747049315703896e+00   1.358710964800000e+01  2.91562140e-01  -2.59340960e-01   9.42168520e-01
C     3.928020526575000e+00   5.315742994733973e+00   3.734869536000000e+00 -1.48619015e+00  -1.11389009e+00  -1.00232537e+00
C     5.187953708775000e+00   5.956548425139913e+00   3.582002680000000e+00 -3.00607694e+00   3.18514914e+00  -5.96092810e-01
C     4.906316390925000e+00   4.057882452281057e+00   2.398652400000000e-01 -3.52799680e-01  -7.95478290e-01  -4.84943100e-01
C     6.081904088849999e+00   4.751383333168072e+00   4.144379680000000e-01  3.08040576e+00   4.71068390e-01   1.00910000e-03
C     6.341422259174999e+00   5.250588124628847e+00   3.491733496000000e+00  4.53554240e-01  -9.19553620e-01  -5.76423900e-01
C     7.523371912575000e+00   5.966291991133274e+00   3.356850464000000e+00  2.37135428e+00   1.18363292e+00   1.06672484e+00
C     7.365181289399999e+00   3.915832874859906e+00   5.140571520000000e-01  4.43644780e-01   7.72517746e+00  -3.15695302e+00
C     8.599258445699999e+00   4.751534345568411e+00   1.464626160000000e-01 -9.97853400e-02   5.25074980e-01   2.02032054e+00
C     8.798378951849999e+00   5.242465028001802e+00   3.537849056000000e+00 -2.93979600e-01   4.57496830e+00  -8.48820990e-01
C     1.003978414642500e+01   6.074225510550998e+00   3.744822968000000e+00 -1.00715580e-01  -6.13077324e+00  -9.62060250e-01
C     7.373141489249999e+00   1.574840309914872e-01   6.690590584000000e+00  2.12885741e+00  -7.42016000e-01   3.40318220e-01
C     1.205181933300000e+00   8.926058634977485e-01   6.597533535999999e+00  5.84965700e-02   5.25490340e-01   1.62524360e-01
C     1.089623411175000e+00   4.273957693539535e-01   1.020143303200000e+01  1.53760912e+00   1.22234166e+00  -1.35786430e-01
C     2.276312039400000e+00   1.121006291135531e+00   9.833653807999999e+00  2.35441192e+00   6.79330920e-01   1.43106291e+00
C     2.442461864100000e+00   2.269875202687092e-01   6.716685584000000e+00  9.00910370e-01  -2.66663098e+00   4.39775220e-01
C     3.739107782625000e+00   8.715518017404199e-01   6.728696424000000e+00 -9.87375270e-01  -9.87772150e-01  -2.18215550e-01
C     3.594538342725000e+00   3.946431138063414e-01   9.929620304000000e+00 -1.92917375e+00   1.42517367e+00  -9.71846600e-02
C     4.842911660924999e+00   1.120278062974270e+00   1.001653382400000e+01 -1.80749477e+00  -2.71474700e-01   1.06606287e+00
C     4.989291729600000e+00   1.276008672206268e-01   6.842374879999999e+00 -1.69951450e-01   2.47664797e+00  -3.31467520e-01
C     6.244256655000000e+00   8.975853020690557e-01   6.804337855999999e+00 -4.03347526e+00   4.67768880e-01  -9.15563430e-01
C     6.016885437075000e+00   4.766673114553350e-01   1.033581014400000e+01  1.77275120e+00  -1.86377789e+00  -3.48827720e-01
C     7.305967638675000e+00   1.122106350508143e+00   1.043118572000000e+01 -2.47407355e+00   1.93427338e+00  -1.60679077e+00
C     8.573947616174999e+00   2.322782634103332e+00   6.500395672000000e+00  7.94504620e-01   7.42675540e-01  -2.26096660e-01
C     2.463621362475000e+00   3.000791679269585e+00   6.443168367999999e+00 -1.35999258e+00  -1.10585172e+00   1.71322110e+00
C     2.318536010400000e+00   2.620927543241608e+00   9.814569880000001e+00  8.79224280e-01  -4.08993337e+00   5.39322970e-01
C     3.565448779125000e+00   3.234389546416229e+00   9.884744791999999e+00  1.18632764e+00   2.45296572e+00   1.75604798e+00
C     3.682883708549999e+00   2.262801315625250e+00   6.591701992000000e+00  1.23482643e+00   1.91363052e+00  -3.51051300e-02
C     4.921410362400000e+00   3.044738145002955e+00   6.666352664000000e+00 -1.06274344e+00  -3.10243227e+00  -3.49271800e-02
C     4.805887447200000e+00   2.495520006252874e+00   1.013082985600000e+01 -1.49154274e+00   2.80851483e+00  -1.13806233e+00
C     5.977635254399999e+00   3.243599573687273e+00   1.032009874400000e+01  2.53443025e+00   6.96846470e-01  -8.07687490e-01
C     6.175256017574999e+00   2.330559324422730e+00   6.626846432000000e+00 -3.50517380e-01   1.02715010e+00   8.20318040e-01
C     7.353682840875000e+00   3.128520119306783e+00   6.532375664000000e+00  1.11413563e+00  -2.65050048e+00   7.35000110e-01
C     7.269485256600000e+00   2.526264286535590e+00   1.027169403200000e+01  9.74806020e-01   2.17238902e+00   3.52384960e-01
C     8.579003651624999e+00   3.311543049792377e+00   1.009366894400000e+01 -4.78058395e+00  -3.19628470e-01  -3.20369000e-03
C     9.802246911075001e+00   4.403385759570198e+00   6.676666768000000e+00  2.98396270e+00  -7.90838820e-01  -1.02954605e+00
C     3.623291064075000e+00   5.126524969450085e+00   6.689816199999999e+00  5.66164100e-01   6.33721840e-01   6.56667160e-01
C     3.513233719425000e+00   4.684712767355221e+00   1.016174605600000e+01  1.85516486e+00   6.37516970e-01   3.11892090e-01
C     4.780759089300000e+00   5.465728856580393e+00   1.031656424000000e+01  4.26333800e-02  -4.63721694e+00  -1.24801671e+00
C     4.826914870874999e+00   4.410435822792800e+00   6.753606456000000e+00  3.45786225e+00   1.90738261e+00  -2.10827630e-01
C     6.136396106025000e+00   5.134762638250245e+00   6.839391312000000e+00 -1.99746118e+00   3.16851672e+00  -1.11919879e+00
C     6.012486077625000e+00   4.701656000034794e+00   1.024108179200000e+01 -4.10002500e-02   1.48940030e-01   1.72246230e-01
C     7.290899475749999e+00   5.412115099564774e+00   1.011701470400000e+01 -2.10560545e+00  -7.68610430e-01   1.33578380e-01
C     7.381200042600000e+00   4.544481358740524e+00   6.699179800000000e+00 -3.79665060e-01  -2.90609186e+00  -4.79430200e-02
C     8.666038734374998e+00   5.129480022111846e+00   6.757401536000000e+00 -2.84365703e+00   2.16977035e+00   1.76257780e-01
C     8.520851146425001e+00   4.734283004043193e+00   1.012155207200000e+01 -8.19205520e-01  -1.00326104e+00   3.47564070e-01
C     9.687785289299999e+00   5.461514726823355e+00   1.023077530400000e+01  2.26016301e+00  -1.12528394e+00  -4.18245050e-01
