72
Lattice="7.395 0 0 3.6975 6.40425786098592 0 0 0 13.6 " PBC="1 1 1" Properties=species:S:1:pos:R:3:force:R:3 Energy="-579.53198335"
C     1.102203075255000e+01   6.327433279307541e+00   1.350658908000000e+01  1.73582594e+00   7.29453500e-01  -9.73925360e-01
C     1.221492789000000e+00   6.299662239778908e-01   1.347047876800000e+01 -9.91750900e-01  -6.65382170e-01   3.62086600e-02
C     1.273984754475000e+00   7.974537697892766e-01   3.593116056000000e+00 -8.14132640e-01   6.07271200e-02  -1.26446930e-01
C     2.515375491825000e+00   1.482085073753084e+00   3.626866904000000e+00  1.54150900e-02   1.76183000e-02  -4.14601550e-01
C     6.181499468175000e+00   6.302733017380199e+00   1.341813236800000e+01 -2.56399161e+00   1.93757426e+00   2.94127140e-01
C     3.674541150225000e+00   5.930544512482591e-01   1.352574400000000e+01  5.27600720e-01   2.01294135e+00  -7.53436380e-01
C     3.774171581849999e+00   8.100839269278757e-01   3.548283656000000e+00  4.36003180e-01   7.25842990e-01   3.03975900e-02
C     5.038087304325000e+00   1.553056162761503e+00   3.525672704000000e+00 -2.42830119e+00  -3.89752940e-01  -8.61163120e-01
C     8.599403387700001e+00   6.362473151507273e+00   1.345198997600000e+01  4.88683960e-01  -1.79362602e+00  -3.30716310e-01
C     6.102738170249999e+00   6.624993415660620e-01   1.336794252000000e+01  2.00688027e+00   3.49303580e-01   5.95238290e-01
C     6.218334037125000e+00   8.050251396016830e-01   3.477352856000000e+00 -6.13625810e-01   1.46999327e+00   8.97302500e-02
C     7.411708189050000e+00   1.494705752590050e+00   3.582645280000000e+00  2.72361273e+00   2.93008302e+00   1.74381000e-03
C     1.218360784650000e+00   2.045139291396802e+00   1.348205590400000e+01 -7.08537300e-01   8.00605120e-01  -1.16900000e-02
C     2.446079239275000e+00   2.763991683192940e+00   3.531144800000000e-02  7.77502630e-01  -1.14085609e+00  -9.93923630e-01
C     2.493851567850000e+00   2.882934570170055e+00   3.603008016000000e+00  2.08488329e+00   6.80340920e-01   2.02023600e-02
C     3.722350564725000e+00   3.599393178463282e+00   3.519549440000000e+00  2.30118850e-01   2.28240276e+00  -8.97120300e-01
C     3.681147658350000e+00   2.013113006775671e+00   1.351694752000000e+01  1.88973600e-01   1.99484768e+00   3.84178400e-01
C     4.910539527525000e+00   2.792100099025638e+00   1.333237729600000e+01 -4.29334790e-01  -7.92279920e-01   1.51867090e-01
C     5.009642991449999e+00   2.979636942578697e+00   3.398856376000000e+00 -1.60729854e+00  -1.63194412e+00   1.65124220e+00
C     6.186274271775000e+00   3.695652504313170e+00   3.502786760000000e+00  2.94413055e+00   9.37068260e-01   1.79482120e-01
C     6.161723611274999e+00   2.086522516964286e+00   1.323114474400000e+01 -1.39353275e+00  -3.30944700e-01   8.82426780e-01
C     7.372333807350000e+00   2.789598403777786e+00   1.328147140800000e+01  1.64964472e+00  -3.62182800e-01   9.02377610e-01
C     7.475184021975000e+00   3.007306858875720e+00   3.643473592000000e+00 -2.65246618e+00  -2.95710074e+00  -8.87036210e-01
C     8.724946047225000e+00   3.641375650438726e+00   3.625995688000000e+00 -1.62352158e+00   1.64952000e-01  -1.10946060e-01
C     2.495860826325000e+00   4.167155998613408e+00   1.952565600000000e-02 -2.74143804e+00   1.03865155e+00  -1.03006130e+00
C     3.673278453975000e+00   4.894722471951913e+00   1.352121084800000e+01  7.39741570e-01   9.15986210e-01  -5.98296100e-02
C     3.695348202900000e+00   5.075929987461934e+00   3.449377656000000e+00  1.01098763e+00  -5.94695890e-01   3.64258330e-01
C     4.955277909449999e+00   5.793003084296829e+00   3.525065872000000e+00 -1.01047116e+00  -7.55164800e-02  -3.40577260e-01
C     4.895851689450000e+00   4.219689549455780e+00   1.331761857600000e+01  1.16494702e+00  -1.09801370e-01   2.65699860e-01
C     6.157620865275000e+00   4.961475204393108e+00   1.320791227200000e+01 -4.43902400e-02  -3.65606324e+00   1.30584226e+00
C     6.188742353025000e+00   5.137441283142769e+00   3.527833880000000e+00  3.53439850e-01  -1.81302978e+00  -2.12890340e-01
C     7.434760659524999e+00   5.804073804646518e+00   3.507705472000000e+00  1.26330178e+00  -1.09761607e+00   5.57107040e-01
C     7.412629790925000e+00   4.216591617801163e+00   1.332165369600000e+01 -9.18257800e-01   3.48681010e-01  -6.76666970e-01
C     8.636555091225000e+00   4.934205618254913e+00   1.341806518400000e+01  5.22587810e-01  -1.30630268e+00   1.17127999e+00
C     8.695670795174999e+00   5.032218686077183e+00   3.530805344000000e+00 -9.86975300e-01   3.12497952e+00  -6.31314510e-01
C     9.875234045099999e+00   5.837060407733755e+00   3.409597656000000e+00  7.06654960e-01  -3.86815717e+00   8.46641340e-01
C     7.423030599600001e+00   7.489011056326801e-02   6.605317088000000e+00  6.60069000e-03  -9.94160000e-03   8.21524460e-01
C     1.272510598200000e+00   7.414004388270481e-01   6.795815688000000e+00 -1.08132855e+00   1.79900244e+00   3.36433570e-01
C     1.161415772025000e+00   6.066407000427774e-01   1.016333100000000e+01  1.07694510e+00   1.68751213e+00   6.45242340e-01
C     2.374451491125000e+00   1.345681169848415e+00   1.022286323200000e+01  2.00512719e+00  -4.58978530e-01  -4.62502710e-01
C     2.462129680049999e+00   7.840989068312400e-02   7.002139248000000e+00  1.97964373e+00  -2.14372579e+00  -3.85685680e-01
C     3.689323311525000e+00   8.339340876668803e-01   7.130179984000001e+00 -1.10172370e-01  -2.29788953e+00  -1.45543424e+00
C     3.673029390375000e+00   6.248455715207707e-01   1.006638244800000e+01 -2.71904773e+00   2.96095970e-01  -6.18308800e-02
C     4.857872448449999e+00   1.360726372626021e+00   1.006160300000000e+01  1.83002106e+00  -7.76195520e-01   1.16945842e+00
C     4.862276651625000e+00   8.703495304123621e-02   6.803698248000000e+00  2.29898677e+00  -4.40121780e-01   6.58474570e-01
C     6.157930974600000e+00   7.774419369560844e-01   6.674337496000001e+00 -8.96076910e-01  -1.71685838e+00   5.10927750e-01
C     6.102321018300000e+00   6.078879292610124e-01   1.010068314400000e+01 -6.40528130e-01  -4.97379660e-01  -8.01070500e-02
C     7.333368775875000e+00   1.289898546865929e+00   1.022579920000000e+01 -1.06976497e+00   1.70282567e+00  -6.29618110e-01
C     1.272977000850000e+00   2.181673073650871e+00   6.886222912000001e+00  8.45970440e-01   3.00512330e-01  -1.61691460e-01
C     2.513424653850000e+00   2.968550531797251e+00   6.975430479999999e+00 -1.30118456e+00  -1.39250609e+00   5.82857620e-01
C     2.395932782925000e+00   2.780604712337252e+00   1.031533452800000e+01  4.14902190e-01  -2.03999158e+00  -3.10493610e-01
C     3.635607251700000e+00   3.436804377574167e+00   1.033892848800000e+01  5.66750380e-01   2.42713695e+00  -5.24044410e-01
C     3.710046615825000e+00   2.221302429160815e+00   7.177823503999999e+00  9.09436940e-01   2.04010709e+00  -1.75468358e+00
C     4.967797200750000e+00   2.924932284279206e+00   6.991492215999999e+00 -6.27670130e-01  -1.80708688e+00  -1.76051740e-01
C     4.871728792724999e+00   2.767302300251089e+00   1.027032206400000e+01 -4.91022680e-01  -2.75897050e-01  -4.34140730e-01
C     6.080428416599999e+00   3.512946392463908e+00   1.024105078400000e+01  1.37394907e+00  -2.56916666e+00  -7.62684650e-01
C     6.169044032700000e+00   2.151104654288991e+00   6.818308456000000e+00  7.08417790e-01   2.16578439e+00   5.31386670e-01
C     7.439506437750000e+00   2.846489219540367e+00   6.853088823999999e+00 -6.90588650e-01   1.12972099e+00  -7.37301000e-03
C     7.316024579850000e+00   2.740449951512474e+00   1.021178997600000e+01  4.52621390e-01   1.83858860e-01   2.66160550e-01
C     8.575855156425000e+00   3.453502903560911e+00   1.022625289600000e+01 -2.13037056e+00   3.01068150e-01  -7.97952200e-01
C     9.884345313675000e+00   4.381534431751878e+00   6.848284351999999e+00  1.32730797e+00  -2.32614220e-01  -7.07613850e-01
C     3.779215526475000e+00   5.082439979619203e+00   6.706277912000000e+00 -1.89828233e+00  -1.56221466e+00   8.35336510e-01
C     3.665948456025000e+00   4.901377136294239e+00   1.026548835200000e+01 -5.38341940e-01  -8.50132330e-01  -2.85518190e-01
C     4.913981012624999e+00   5.640911374380884e+00   1.020161432000000e+01 -1.49983241e+00  -2.82814456e+00  -4.71458270e-01
C     4.988453506350000e+00   4.315937091471206e+00   6.849857464000000e+00  2.22519630e-01   1.43907654e+00   1.55189290e-01
C     6.250204157700000e+00   5.002399372757187e+00   6.917111096000000e+00 -2.01960495e+00   1.91582976e+00  -1.77860790e-01
C     6.117211072650000e+00   4.887300385390223e+00   1.008265824800000e+01  5.24294000e-02   1.89301246e+00   5.38035750e-01
C     7.352401065525000e+00   5.595583830440003e+00   9.929184831999999e+00 -4.84929800e-01   1.57724660e-01   1.07115376e+00
C     7.454426885549999e+00   4.294988892096303e+00   6.917147408000000e+00 -9.45545060e-01  -1.19513579e+00  -3.10988020e-01
C     8.620857170100001e+00   5.028516704821210e+00   6.804500375999999e+00  1.17642531e+00   1.98596644e+00   3.11567130e-01
C     8.543870783099999e+00   4.851171405098819e+00   9.995023927999998e+00  1.60991581e+00   5.96233350e-01   9.99994920e-01
C     9.795919564199998e+00   5.561508375431409e+00   1.010049206400000e+01  2.96232000e-01   1.11944111e+00   6.88280600e-02
