72
Lattice="7.395 0 0 3.6975 6.40425786098592 0 0 0 13.6 " PBC="1 1 1" Properties=species:S:1:pos:R:3:force:R:3 Energy="-581.81871537"
C     3.689328857775000e+00   6.353347404269666e+00   1.336617737600000e+01  8.78980870e-01  -2.51776640e-01   6.42694460e-01
C     1.283089922175000e+00   6.606072035813251e-01   1.340184188000000e+01 -1.96559091e+00   6.10919400e-02   1.17262400e-01
C     1.278806257500000e+00   8.095706897029752e-01   3.569376032000000e+00 -7.20334900e-02  -6.31682170e-01  -2.10103680e-01
C     2.479722902700000e+00   1.551813416523770e+00   3.551761448000000e+00  9.85697690e-01  -1.73818239e+00  -9.45246900e-02
C     6.226640359950000e+00   6.345647244831695e+00   1.341805348800000e+01 -3.55387395e+00   1.19978548e+00  -1.78587530e-01
C     3.701226969075000e+00   6.546164046087667e-01   1.337028988000000e+01 -5.18603960e-01   1.21590815e+00   8.66466890e-01
C     3.719234385675000e+00   8.087137359587288e-01   3.516792584000000e+00 -3.02032020e-01  -8.56732790e-01   1.20384680e-01
C     4.980547363950000e+00   1.472116782351415e+00   3.486464856000000e+00 -1.63685266e+00   3.82280660e-01   7.37505490e-01
C     8.571959322525000e+00   6.364563052974727e+00   1.342867740000000e+01  2.40001478e+00  -1.20368811e+00  -2.63569300e-02
C     6.121198234800000e+00   6.038385170161344e-01   1.340886124800000e+01  1.77700816e+00   2.00756635e+00  -1.27071590e-01
C     6.182666066400000e+00   7.500796171640772e-01   3.534379424000000e+00  7.74369090e-01   1.63814927e+00   1.15629300e-01
C     7.412081414699999e+00   1.458679496594721e+00   3.562375568000000e+00  9.89042520e-01   1.74606551e+00  -2.39339850e-01
C     1.226514363750000e+00   2.083763754805933e+00   1.341938071200000e+01 -6.13027800e-02   6.31144910e-01  -4.21301230e-01
C     2.459639228925000e+00   2.826571529297716e+00   1.341104037600000e+01 -2.10007720e-01  -1.00423126e+00   4.77509300e-01
C     2.482538511975000e+00   2.939745140581650e+00   3.542352832000000e+00  7.87911930e-01   1.06122901e+00  -2.38108290e-01
C     3.703290248025000e+00   3.645698908749698e+00   3.498642568000000e+00  1.93789799e+00   2.98514560e-01   7.47698180e-01
C     3.680464249425000e+00   2.059080656289657e+00   1.344336036800000e+01  5.35592480e-01   2.01599086e+00  -9.80290780e-01
C     4.935302646375000e+00   2.771526804905859e+00   1.335709924000000e+01 -7.97099840e-01   6.26569250e-01   8.01539930e-01
C     4.946384238749999e+00   2.883845127552589e+00   3.585054248000000e+00  1.45437060e-01   1.10205434e+00  -1.22478261e+00
C     6.185582728349999e+00   3.584401387196230e+00   3.554425688000000e+00  5.83611440e-01   1.27072350e+00  -9.28057500e-02
C     6.164525354924999e+00   2.040756793700625e+00   1.337538947200000e+01 -1.11823099e+00   4.63967650e-01  -1.38203200e-01
C     7.351978293375000e+00   2.788768476001708e+00   1.333931370400000e+01  1.74137526e+00   3.19069460e-01   4.02548270e-01
C     7.455867135750000e+00   2.919567565555041e+00   3.535264784000000e+00 -1.24019066e+00  -7.86214280e-01   2.84688050e-01
C     8.686634992575000e+00   3.667088489576312e+00   3.547199736000000e+00 -1.72656299e+00  -1.06955462e+00  -2.62637720e-01
C     2.458181526525000e+00   4.249705089236607e+00   1.342258446400000e+01 -1.08964733e+00  -6.13403280e-01   1.28663250e-01
C     3.684736673700000e+00   4.924953194796835e+00   1.339000403200000e+01  1.51625610e-01   7.93809220e-01   1.08495900e-01
C     3.764164298100000e+00   5.098769876523524e+00   3.527075408000000e+00 -2.57072210e-01  -1.38042749e+00   1.05726770e-01
C     5.036499412950000e+00   5.790850357059768e+00   3.526772672000000e+00 -2.82991697e+00  -2.54787260e-01   1.13043690e-01
C     4.903364787599999e+00   4.226868722516841e+00   1.338439267200000e+01  1.00571622e+00  -8.70991680e-01  -5.13741000e-03
C     6.134799007874999e+00   4.973468073832058e+00   1.340125408800000e+01  6.28802930e-01  -2.56548644e+00  -4.59018840e-01
C     6.199309068524999e+00   5.036702050834655e+00   3.525969048000000e+00  7.87268630e-01  -7.16316490e-01   2.69612190e-01
C     7.407540367049999e+00   5.764708944986191e+00   3.560391328000000e+00  1.27189228e+00   5.00918230e-01  -6.32705330e-01
C     7.364743653300000e+00   4.251530879109914e+00   1.332742744000000e+01 -1.25934370e-01  -1.51531188e+00   1.08547214e+00
C     8.591985315299999e+00   4.960806535829945e+00   1.345525601600000e+01  2.97155480e-01  -1.34854971e+00  -8.50323020e-01
C     8.674866034950000e+00   5.066285303209932e+00   3.534856239999999e+00 -7.97828480e-01   5.25019350e-01   4.70748560e-01
C     9.898438187024999e+00   5.775905829215723e+00   3.584415728000000e+00  5.78391160e-01  -1.12299013e+00  -8.03820390e-01
C     4.980968804999999e-02   3.988290007862160e-02   6.775369720000000e+00 -1.36991048e+00   5.33456990e-01   2.08929510e-01
C     1.254487467225000e+00   7.526810907493878e-01   6.836471800000000e+00 -5.45473160e-01   1.33200692e+00  -9.16469400e-02
C     1.190985271125000e+00   6.118095765615834e-01   1.025821847200000e+01 -7.03747700e-01   1.34881854e+00  -6.38025320e-01
C     2.383546416750000e+00   1.336169117776693e+00   1.019431547200000e+01  2.30230309e+00   3.00925760e-01  -6.58094900e-02
C     2.463983643525000e+00   8.330293581589981e-02   6.873284552000000e+00  1.92844130e+00  -1.54066556e+00  -7.69936900e-02
C     3.752048441025000e+00   7.375161923923794e-01   6.874139176000001e+00 -5.17271990e-01  -6.05899070e-01   2.74566270e-01
C     3.654680065950000e+00   6.302272615282645e-01   1.011435155200000e+01 -7.64276020e-01  -1.28070720e-01   1.27892279e+00
C     4.882172603324999e+00   1.360820579259141e+00   1.024111579200000e+01  1.18619690e-01  -8.68912610e-01  -1.08978129e+00
C     5.005105678275000e+00   4.660615402262820e-02   6.901384464000000e+00 -8.08767680e-01  -2.33071710e-01  -8.78284150e-01
C     6.225122018550000e+00   7.994570856904633e-01   6.801587256000000e+00 -5.80240800e-01  -1.26799539e+00   5.31158860e-01
C     6.143839765125000e+00   6.584161788822618e-01   1.019430500000000e+01 -1.19618815e+00  -4.65401140e-01   3.56347970e-01
C     7.365227286300000e+00   1.363870350894652e+00   1.023658536000000e+01  2.48694320e-01  -3.67675100e-02   7.39266700e-02
C     8.617946424150000e+00   2.188574686176278e+00   6.846109984000000e+00  1.15153357e+00  -4.96839210e-01   2.51507850e-01
C     2.491075189050000e+00   2.845348749300658e+00   6.917105520000000e+00 -4.50935440e-01   5.01380150e-01  -1.11078321e+00
C     2.427366376650000e+00   2.765805048806000e+00   1.022678724000000e+01 -2.62435240e-01  -5.44960000e-03  -8.72124200e-02
C     3.658414060275000e+00   3.465492827041245e+00   1.025783400000000e+01 -6.59970190e-01   1.24450843e+00  -4.13114350e-01
C     3.731358747000000e+00   2.124631629743423e+00   6.874495359999999e+00 -4.68974380e-01   1.77985260e+00   3.41203940e-01
C     4.925120914574999e+00   2.885198923621615e+00   6.883493664000000e+00  1.10157103e+00  -3.93112200e-02  -1.25838060e-01
C     4.864628113725000e+00   2.776818771260734e+00   1.023931311200000e+01  1.29580972e+00  -5.25044870e-01   1.20998750e-01
C     6.101575898100000e+00   3.492844707892941e+00   1.021560545600000e+01  8.42574890e-01  -1.24787930e+00   2.92869810e-01
C     6.192629423850000e+00   2.219683496816386e+00   6.844749304000000e+00 -5.08377040e-01  -8.05201500e-01  -2.31308280e-01
C     7.414349683049998e+00   2.917880555949560e+00   6.810125879999999e+00 -4.55423040e-01   9.73524700e-01   3.43114590e-01
C     7.384446373649999e+00   2.798401056206356e+00   1.024332076000000e+01 -1.24892182e+00  -4.88134960e-01  -4.55153430e-01
C     8.614443967274999e+00   3.509203936298260e+00   1.020577537600000e+01 -1.06232245e+00  -7.91439810e-01   3.39245300e-01
C     2.468881499925000e+00   4.264163597951657e+00   6.797719552000000e+00  3.41876870e-01   1.21074917e+00   7.70372210e-01
C     3.694908089475000e+00   5.034798705398662e+00   6.791545288000000e+00  3.71916830e-01  -1.54885764e+00   3.25455680e-01
C     3.664608297150000e+00   4.911259482555426e+00   1.023553612000000e+01 -9.39086700e-01  -4.12693410e-01  -2.21481930e-01
C     4.896600618074999e+00   5.621604586295498e+00   1.022115126400000e+01 -1.19122365e+00  -8.63017740e-01   2.37125380e-01
C     4.931878095825001e+00   4.298508736258738e+00   6.879718304000000e+00 -2.39346150e-01   1.38536486e+00  -4.06674790e-01
C     6.163957603800000e+00   5.060148102902692e+00   6.869022040000000e+00 -8.18240050e-01  -5.10821810e-01   7.06710800e-02
C     6.088206070875000e+00   4.883633371382166e+00   1.022225871200000e+01  1.00414496e+00   8.86063090e-01  -3.73038200e-01
C     7.324257951000000e+00   5.585312489556400e+00   1.017528580800000e+01 -5.84900600e-02   1.64765311e+00  -1.74326200e-01
C     7.385691321900000e+00   4.366018003680934e+00   6.843786968000000e+00  6.80541420e-01  -1.47627856e+00   7.89158200e-02
C     8.633949019275001e+00   5.009562727301333e+00   6.849944912000000e+00  1.21936725e+00   8.50320160e-01  -8.38860100e-02
C     8.543684392124998e+00   4.914462572124106e+00   1.019608918400000e+01  2.34083331e+00   1.81495360e-01  -1.49151440e-01
C     9.812661104699998e+00   5.623945790841378e+00   1.018812380000000e+01 -2.41878500e-02   3.39600690e-01   1.35153540e-01
