72
Lattice="7.395 0 0 3.6975 6.40425786098592 0 0 0 13.6 " PBC="1 1 1" Properties=species:S:1:pos:R:3:force:R:3 Energy="-575.80023932"
C     3.656610752550000e+00   6.221817845064822e+00   3.558513440000000e-01 -1.70364511e+00  -2.02177485e+00  -1.71900014e+00
C     1.108687388400000e+00   5.290095030728509e-01   3.090935920000000e-01  4.89510501e+00  -2.34328328e+00  -5.09939500e-02
C     1.429792227975000e+00   1.035598531931364e+00   3.444773104000000e+00 -1.51737984e+00   2.48829320e-01  -3.52217930e-01
C     2.700714786900000e+00   1.677257713952621e+00   3.593920496000000e+00 -2.10084016e+00   2.75405894e+00  -1.02776315e+00
C     6.077953273124999e+00   6.169975697901015e+00   1.769151920000000e-01  1.77750490e+00  -6.42373500e-02   8.10574000e-02
C     3.665584215300000e+00   4.776369801379176e-01   2.912652160000000e-01  3.93500040e-01  -3.83035600e-01  -1.64552166e+00
C     3.900691712475000e+00   1.025968833642753e+00   3.438889744000000e+00  1.55759919e+00   7.05566560e-01  -2.05011300e-02
C     5.095811602050000e+00   1.819764363257241e+00   3.351366536000000e+00  2.50032902e+00  -1.64979159e+00  -1.29784544e+00
C     8.639378391299999e+00   6.159513638218341e+00   1.517371040000000e-01 -9.45970320e-01   1.57279434e+00  -2.11418930e-01
C     6.188859378900000e+00   5.803575617427589e-01   1.213593280000000e-01 -3.11353602e+00  -2.95128540e+00   9.29462010e-01
C     6.377953152450000e+00   1.123479103180434e+00   3.172877552000000e+00 -1.39781781e+00  -2.24421151e+00   9.33477310e-01
C     7.602392664074999e+00   1.859842144902542e+00   3.376414744000000e+00 -5.61561690e-01  -6.07923916e+00  -4.17972550e-01
C     1.191688350750000e+00   1.908499582717728e+00   3.932169360000000e-01  3.66513550e-01   4.52865960e-01  -1.28275359e+00
C     2.464739301600000e+00   2.567050443142786e+00   5.094356000000000e-01 -1.23102881e+00   2.05700201e+00  -1.10270272e+00
C     2.687364667350000e+00   3.176315672099170e+00   3.517633880000000e+00 -1.38210241e+00  -1.90083302e+00   1.73027320e-01
C     3.907988358975000e+00   3.879350699747523e+00   3.321378672000000e+00 -1.08729421e+00  -8.35941510e-01  -5.00479840e-01
C     3.704853920775000e+00   1.951162122835326e+00   3.070927600000000e-01 -1.64436896e+00  -2.91898586e+00   1.21292815e+00
C     4.876758501974999e+00   2.676028304889740e+00   1.864783040000000e-01  1.94214754e+00  -2.70981873e+00  -1.24630440e+00
C     5.153771060775000e+00   3.225833457915269e+00   3.206948000000000e+00 -1.43501790e-01  -9.25256800e-02   1.90131038e+00
C     6.399867088724999e+00   3.961336343764200e+00   3.320861872000000e+00 -2.30620980e+00  -7.54607420e-01   2.59415400e-01
C     6.124277364899999e+00   1.980254424803054e+00   2.028820800000000e-02  9.67521670e-01  -1.31350253e+00   4.98087950e-01
C     7.407748721174999e+00   2.603106478937164e+00   4.142260800000000e-02 -9.70246720e-01   1.33969997e+00   1.65327387e+00
C     7.547206034549999e+00   3.181676164013147e+00   3.545811720000000e+00  1.35262995e+00   3.45014406e+00  -8.80088690e-01
C     8.785137538799999e+00   3.845974717782398e+00   3.535313472000000e+00  2.78809973e+00   2.14352459e+00  -4.47512160e-01
C     2.416459121400000e+00   4.015637725946246e+00   4.880313760000000e-01  1.27288999e+00  -3.64751530e-01  -1.93824340e+00
C     3.658263276225000e+00   4.722001686830228e+00   3.984801360000000e-01  9.35715740e-01   1.70484598e+00  -1.19334542e+00
C     3.830121634199999e+00   5.240707827730175e+00   3.111334832000000e+00  3.40728360e-01   2.49869954e+00   1.05862093e+00
C     5.005674575625000e+00   6.011121668068117e+00   3.258794056000000e+00  4.02596000e+00   1.19414456e+00   6.46230200e-01
C     4.922657529149999e+00   4.015214916842329e+00   1.006831120000000e-01 -1.51959124e+00   3.62329622e+00   9.31600960e-01
C     6.180336678375000e+00   4.698457201318882e+00   1.352495928000000e+01 -2.15320636e+00   3.02649969e+00   1.98854919e+00
C     6.355769224725000e+00   5.386501206211125e+00   3.386715520000000e+00 -1.33273323e+00  -1.66844597e+00  -7.92521710e-01
C     7.622234077649999e+00   6.027385216861008e+00   3.387770200000000e+00 -1.75148433e+00   8.74865440e-01   4.02444010e-01
C     7.399660329000000e+00   4.020742431801295e+00   6.791472799999999e-02  3.10999990e-01   2.64941750e-01  -1.34051161e+00
C     8.627125467899999e+00   4.718345688145690e+00   1.028155920000000e-01  3.04332810e-01   1.32175633e+00   2.17788426e+00
C     8.815377024900000e+00   5.315830156683447e+00   3.349611320000000e+00 -1.88467700e-01  -2.51960320e+00  -1.23552400e-01
C     1.001003228662500e+01   5.964410548259163e+00   3.091910768000000e+00  1.22129664e+00   3.49118342e+00   1.36742677e+00
C     7.320621163949999e+00   2.176625365690776e-01   6.440539896000000e+00  1.73051973e+00  -7.32978160e-01   3.90537170e-01
C     1.197670794825000e+00   9.212968746679698e-01   6.536264311999999e+00  1.91960630e-01  -1.62606585e+00   7.64151000e-03
C     1.096103279925000e+00   4.297951886037810e-01   1.021742078400000e+01  4.37049500e-01  -1.20140121e+00   1.05552254e+00
C     2.388960259275000e+00   1.153849951187333e+00   1.045699457600000e+01 -3.51501038e+00  -2.41051440e+00  -5.23839350e-01
C     2.441075042775000e+00   1.135667686739586e-01   6.524304744000000e+00 -5.47097150e-01   4.70529401e+00   5.42197390e-01
C     3.638184224325000e+00   9.294259272548251e-01   6.598344504000000e+00 -1.14081497e+00   7.56724950e-01  -5.15740570e-01
C     3.563438041650000e+00   4.336862235517812e-01   1.042887875200000e+01  1.61097795e+00  -1.21051530e+00  -1.56690562e+00
C     4.793616590925000e+00   1.079819420114035e+00   1.025569281600000e+01  6.79745600e-02   1.74705604e+00   1.16049054e+00
C     4.809655828274999e+00   2.015200282497402e-01   6.375103903999999e+00  1.58755380e+00  -5.20542390e-01   1.36688338e+00
C     6.057132465750001e+00   8.489137108439989e-01   6.438386471999999e+00  9.80847950e-01   2.10965266e+00   5.31945600e-02
C     6.004817092875000e+00   3.551793083620782e-01   1.014620112000000e+01  8.08245220e-01   1.78922211e+00   3.98314910e-01
C     7.233261884399999e+00   1.079357609079750e+00   1.018707320000000e+01  6.58066990e-01   4.36480040e-01  -2.70685920e-01
C     8.629885023074999e+00   2.343009201702570e+00   6.627469176000000e+00 -4.47513630e-01  -8.58137940e-01  -3.07160030e-01
C     2.407936531800000e+00   3.132150372874723e+00   6.605476752000000e+00  1.42864602e+00  -1.55534692e+00   1.13231273e+00
C     2.345147435550000e+00   2.507450498220268e+00   1.054772412000000e+01 -1.26682330e+00   3.57982057e+00  -1.32819794e+00
C     3.568526541150000e+00   3.289823201387923e+00   1.044295448000000e+01  8.18635800e-02  -2.85584671e+00   2.73817080e-01
C     3.642252731475000e+00   2.435396769420615e+00   6.699174360000000e+00  8.80242500e-01  -3.33267921e+00  -1.14093946e+00
C     4.942806759600000e+00   3.035693539712434e+00   6.601089392000000e+00 -2.76140800e+00   1.85698376e+00  -9.00498500e-02
C     4.802403366899999e+00   2.512440055518994e+00   1.037511849600000e+01  2.03913730e-01   1.49888314e+00  -9.74615490e-01
C     6.060186711675000e+00   3.235638760954400e+00   1.022951200000000e+01 -2.60102843e+00   1.60422738e+00  -2.89665600e-01
C     6.094727425575000e+00   2.272968651361208e+00   6.538899720000000e+00  2.14407996e+00   4.14605510e-01   4.69131300e-01
C     7.390568398349999e+00   2.993056808754012e+00   6.626755176000000e+00 -1.58025292e+00  -1.34282771e+00  -4.92395000e-01
C     7.220538269250000e+00   2.504745211615047e+00   1.018200121600000e+01  1.25111835e+00  -5.54826440e-01   8.61321710e-01
C     8.416983083999998e+00   3.197052146709221e+00   1.035582934400000e+01  3.88945811e+00   1.47114258e+00  -6.57376130e-01
C     9.844103683349999e+00   4.529565329843955e+00   6.586101240000000e+00 -1.65379000e-03  -4.53746260e-01  -9.92250150e-01
C     3.699287001750000e+00   5.182386813102299e+00   6.478601400000000e+00 -8.76574620e-01   1.61307973e+00   2.99183300e-01
C     3.565175201100000e+00   4.680118544894192e+00   1.030449084000000e+01 -3.60388890e-01  -2.63364880e-01   6.15518200e-02
C     4.752041642099999e+00   5.363697757376759e+00   1.023122206400000e+01  4.05704345e+00   2.18339759e+00  -2.92194970e-01
C     4.910988514950000e+00   4.507520337267948e+00   6.503615744000000e+00  1.28318932e+00  -2.54032282e+00   4.24488740e-01
C     6.166973543625000e+00   5.151681406664793e+00   6.491211592000000e+00  3.79189680e-01  -1.92111375e+00   1.56961940e-01
C     6.071720804100000e+00   4.702734284930682e+00   1.017759876000000e+01 -1.37793405e+00  -1.06397160e+00   7.48572000e-01
C     7.302506519850000e+00   5.446332152714654e+00   1.020734481600000e+01 -7.24787600e-01  -2.55716977e+00   2.05553540e-01
C     7.411867107600000e+00   4.360916884210287e+00   6.556506416000000e+00 -7.54689470e-01   4.19718613e+00  -4.25376950e-01
C     8.621748119699999e+00   5.184014135024525e+00   6.444565904000000e+00 -2.44108743e+00  -7.86804460e-01   7.69535350e-01
C     8.538240230100000e+00   4.651092655080472e+00   1.018695433600000e+01 -2.34382458e+00   7.73606600e-02   1.11084548e+00
C     9.746806965825000e+00   5.392299365107255e+00   1.023521080800000e+01 -8.30458230e-01  -2.26901034e+00  -2.47622440e-01
