72
Lattice="7.395 0 0 3.6975 6.40425786098592 0 0 0 13.6 " PBC="1 1 1" Properties=species:S:1:pos:R:3:force:R:3 Energy="-577.13473663"
C     3.693397069125000e+00   6.297116483236980e+00   1.326363813600000e+01 -1.61419202e+00   2.31995962e+00  -3.66417330e-01
C     1.135237102275000e+00   6.818699801023110e-01   1.319497255200000e+01  3.06309844e+00  -2.37286557e+00   2.43207460e-01
C     1.287988000425000e+00   7.977085311669474e-01   3.533499232000000e+00 -3.73752020e-01   1.43034740e-01   2.66300440e-01
C     2.546474572725000e+00   1.518487643940267e+00   3.496462896000000e+00 -1.71521461e+00   6.10112970e-01   2.14327060e-01
C     6.031314745950000e+00   6.336829478354576e+00   1.324814705600000e+01  4.59758780e+00  -1.29119420e-01   7.80525510e-01
C     3.665159594400000e+00   6.944030486917524e-01   1.328882533600000e+01  2.94445660e-01  -2.21114686e+00  -1.01197175e+00
C     3.738735814125000e+00   7.739347732242127e-01   3.613538632000000e+00  1.44433775e+00   3.57929418e+00   5.09306400e-02
C     4.940962594499999e+00   1.563594689283026e+00   3.734880416000000e+00  2.21837254e+00  -9.83560660e-01  -1.56510031e+00
C     8.688760019775000e+00   6.358457617786475e+00   1.326281452000000e+01 -3.62380404e+00  -7.19473710e-01   2.16465910e-01
C     6.197770834575000e+00   6.866840607356730e-01   1.329135656800000e+01 -1.69781970e+00  -7.66150900e-01   2.25544940e-01
C     6.239125671225000e+00   8.399616470795550e-01   3.709870152000000e+00 -2.00023840e+00   6.61960680e-01  -4.31015030e-01
C     7.458675239100000e+00   1.534105899711185e+00   3.557802704000000e+00  2.79838710e-01   4.47956730e-01   3.75374290e-01
C     1.221923695650000e+00   2.070928469288078e+00   1.314514732000000e+01 -1.67093614e+00  -3.16534600e-02   1.11412078e+00
C     2.406111593699999e+00   2.782370686442147e+00   1.310302417600000e+01  2.93633345e+00  -1.08572377e+00  -2.42765560e-01
C     2.529184766925000e+00   2.981324528567385e+00   3.522521992000000e+00  2.29485590e-01  -2.20796725e+00   6.87082170e-01
C     3.816518938425000e+00   3.653974618841547e+00   3.731723992000000e+00 -4.83467987e+00   1.17429177e+00  -1.57881903e+00
C     3.693257303625000e+00   2.095596709926120e+00   1.310869048000000e+01 -4.67098660e-01  -5.67146770e-01   2.38038500e+00
C     4.923876594899999e+00   2.806943567680652e+00   1.341035792800000e+01 -9.02339140e-01  -1.53795122e+00  -1.52691174e+00
C     5.007667269300000e+00   3.017813107937628e+00   3.599313984000000e+00 -6.30719310e-01  -3.94675528e+00   1.44067870e+00
C     6.200946099675000e+00   3.687341314632776e+00   3.641011720000000e+00  2.45875268e+00   9.64717630e-01  -1.72179370e-01
C     6.160955529599999e+00   2.148283066361032e+00   1.341492725600000e+01 -1.87932460e-01  -3.60519015e+00   5.97186300e-02
C     7.408249177800000e+00   2.764450548268609e+00   1.341464369600000e+01  3.60841730e-01  -8.60243080e-01  -4.60701450e-01
C     7.442279082074999e+00   2.980288960071423e+00   3.568129320000000e+00 -2.50737962e+00  -2.68318013e+00  -2.93705730e-01
C     8.610631807800001e+00   3.629704466872084e+00   3.520628872000000e+00  5.12279482e+00   2.43353203e+00   8.47961420e-01
C     2.455687747650000e+00   4.161388131856957e+00   1.309692892800000e+01 -1.31088070e-01   2.22111188e+00   6.88610710e-01
C     3.701995753275000e+00   4.913436481929776e+00   1.318095979200000e+01 -6.80923620e-01  -1.69874263e+00   4.86998850e-01
C     3.742287595650000e+00   5.059746299764557e+00   3.741852456000000e+00 -6.18195080e-01   1.10365195e+00  -2.38086400e-01
C     4.930443983475000e+00   5.750599020026461e+00   3.694871800000000e+00  3.23500447e+00   2.59325545e+00  -5.74198190e-01
C     4.925769862799999e+00   4.184841548821534e+00   1.334876352800000e+01 -3.97495170e-01   1.62242299e+00   4.73910300e-02
C     6.140403974174999e+00   4.877205545853241e+00   1.340695765600000e+01  1.02220124e+00   1.28413015e+00   2.45263160e-01
C     6.234373200524999e+00   5.109233857483556e+00   3.686865616000000e+00 -1.93435984e+00  -9.14264150e-01  -7.24154050e-01
C     7.454036873249999e+00   5.807156494167429e+00   3.593183648000000e+00  4.12619060e-01  -2.17482776e+00   1.01502637e+00
C     7.453142558924999e+00   4.105737500628964e+00   1.349664856800000e+01 -2.59227552e+00   5.52249284e+00  -1.61131163e+00
C     8.606760784125001e+00   4.850146531713483e+00   1.317115718400000e+01  1.76821065e+00   2.56931055e+00   1.71550844e+00
C     8.669416104825000e+00   5.046518753452776e+00   3.682203672000000e+00  4.63965020e-01   2.44795728e+00  -1.19529362e+00
C     9.927792824399999e+00   5.844109190104786e+00   3.683533480000000e+00 -1.28731569e+00  -3.25521822e+00   5.54270040e-01
C     7.380440169374999e+00   4.609804020401580e-02   7.096305376000000e+00  2.23775197e+00   8.41864170e-01  -7.78333610e-01
C     1.281649967775000e+00   7.763805593009467e-01   6.893029576000000e+00 -1.80950977e+00  -1.81346910e-01   3.54004350e-01
C     1.196007585375000e+00   6.191323330838646e-01   1.018602817600000e+01 -1.22363247e+00   1.09410120e-01   6.39428930e-01
C     2.413994737650000e+00   1.329512019816380e+00   1.019222651200000e+01  1.43500070e-01   2.52994990e-01   2.18506810e-01
C     2.498750977200000e+00   5.873063096060160e-02   6.755506104000000e+00 -4.53780690e-01  -6.98805360e-01   6.25405570e-01
C     3.711746282625000e+00   7.910811489631051e-01   6.700773856000000e+00  4.18248000e-02  -3.82917250e-01   3.31920140e-01
C     3.655729231575000e+00   6.033532663980823e-01   1.041908444000000e+01 -1.88695453e+00   1.92712965e+00  -2.19331961e+00
C     4.857837950775000e+00   1.282257498728006e+00   1.021924223200000e+01  1.31869472e+00   1.96157069e+00   1.21835593e+00
C     4.934718959025000e+00   4.371540010978140e-02   6.851878832000000e+00  4.39146460e-01   1.56611401e+00   8.21503010e-01
C     6.154255067999999e+00   7.546368870572533e-01   7.072511224000000e+00  1.31041570e-01  -1.42027170e-01  -1.39927035e+00
C     6.081884344200001e+00   6.178337417175924e-01   1.033759201600000e+01  6.00326580e-01  -1.48141234e+00  -8.94935750e-01
C     7.302437413575000e+00   1.317285202837804e+00   1.022660160000000e+01  1.06372366e+00  -1.50885551e+00  -5.19669480e-01
C     8.646258847200000e+00   2.210869316723668e+00   6.862375040000000e+00  9.49670870e-01  -2.46942950e-01  -8.06543020e-01
C     2.498324507550000e+00   2.968039215849708e+00   6.665326680000000e+00 -1.29843947e+00  -2.03125384e+00   1.96075624e+00
C     2.376163470600000e+00   2.794687098988184e+00   1.007859796800000e+01  1.32966214e+00  -3.07304311e+00   4.52370020e-01
C     3.611918219625000e+00   3.469612942292898e+00   1.005696077600000e+01  1.58077436e+00  -6.62812270e-01   8.79522000e-01
C     3.687977569425000e+00   2.221608680771680e+00   6.673356119999999e+00  2.43477459e+00   5.96646860e-01   3.24266380e-01
C     5.000130507150000e+00   2.964444505912890e+00   6.771788568000000e+00 -2.38320605e+00  -4.67317226e+00   1.54157510e-01
C     4.917970873950000e+00   2.716157961023708e+00   1.017434360000000e+01 -3.98047926e+00   5.17143950e-01  -6.59442950e-01
C     6.096045954075000e+00   3.423410576728343e+00   1.024273528000000e+01  5.88366820e-01   1.53702948e+00  -4.52319970e-01
C     6.184817234924999e+00   2.151094599604150e+00   6.902088943999999e+00  7.28685300e-02   2.46198805e+00   2.75901810e-01
C     7.408643701050000e+00   2.896510700237154e+00   6.911434591999999e+00  4.31431320e-01   3.51601360e-01  -1.86525210e-01
C     7.284604962674999e+00   2.680954075780181e+00   1.015897519200000e+01  2.29054791e+00   2.86702880e+00   9.95869130e-01
C     8.557958369024998e+00   3.428232086300822e+00   1.020681700000000e+01 -1.58388495e+00   1.67581645e+00  -5.34199620e-01
C     9.895851822750000e+00   4.346568016389799e+00   6.956591080000001e+00  1.13795090e-01  -8.70333100e-02  -1.09068712e+00
C     3.710024578725000e+00   5.040983553384379e+00   7.013059232000000e+00  1.25252575e+00  -7.08934000e-03  -4.51441270e-01
C     3.570063111225000e+00   4.869024362607405e+00   1.015482705600000e+01  3.80736054e+00   5.12527430e-01   4.13531910e-01
C     4.851006560700000e+00   5.611159946194203e+00   1.025580188800000e+01  7.66316870e-01  -1.62796311e+00  -7.00179090e-01
C     4.966188862199999e+00   4.314559535605519e+00   6.847678608000000e+00 -2.31012070e-01   2.28374935e+00   5.05705210e-01
C     6.205777438049999e+00   4.993901563002753e+00   6.840304824000000e+00 -2.38463960e-01   3.05897939e+00  -2.76474500e-01
C     6.111617568600000e+00   4.881310098758294e+00   1.029210450400000e+01 -3.67863210e-01   6.86303600e-01   2.52127120e-01
C     7.364243492475000e+00   5.643723355922051e+00   1.041795999200000e+01 -9.27620020e-01  -4.02832587e+00  -5.98844260e-01
C     7.436999163000000e+00   4.354794285610970e+00   6.844484648000000e+00  2.14818040e-01  -2.21856581e+00   2.62046190e-01
C     8.687743170299999e+00   5.057209829396525e+00   6.903737944000000e+00 -1.97561950e+00  -4.82654550e-01  -7.25965900e-02
C     8.614241381250000e+00   4.884756229912759e+00   1.034688816000000e+01 -3.36162781e+00  -1.21915292e+00  -4.22044810e-01
C     9.796161380699999e+00   5.573102259605681e+00   1.031112682400000e+01 -1.40648250e-01   1.61105626e+00  -2.86791460e-01
