72
Lattice="7.395 0 0 3.6975 6.40425786098592 0 0 0 13.6 " PBC="1 1 1" Properties=species:S:1:pos:R:3:force:R:3 Energy="-574.22266059"
C     3.716221699650000e+00   6.232831247306664e+00   1.358162327200000e+01 -1.81721876e+00  -1.12712624e+00  -7.65435260e-01
C     1.239596414550000e+00   4.884959116801764e-01   1.095221600000000e-02 -2.37577170e-01  -3.01950050e-01   7.45462400e-02
C     1.383667764225000e+00   1.071274731192065e+00   3.625827864000000e+00  1.38748378e+00  -2.35790880e+00  -4.40401320e-01
C     2.660246056125000e+00   1.672614562961542e+00   3.700653432000000e+00 -2.36701001e+00   4.99850918e+00  -1.14637711e+00
C     6.155000631899999e+00   6.201806844785152e+00   1.358575944000000e+01  4.55764990e-01   1.20376975e+00  -2.07822210e-01
C     3.681413397675000e+00   5.307735559003878e-01   1.355923291200000e+01  7.61339030e-01  -6.19971690e-01  -2.36312480e-01
C     3.841651215674999e+00   9.873210587350111e-01   3.612095808000000e+00  2.52369259e+00   5.69175427e+00   7.56770720e-01
C     5.094667336725000e+00   1.711442297515150e+00   3.686892272000000e+00  5.20105150e-01   7.10953660e-01  -1.67339768e+00
C     8.611790863124998e+00   6.137084198042999e+00   1.357089151200000e+01 -1.63527113e+00   3.85436208e+00  -8.16475130e-01
C     6.122595372150000e+00   4.077316877225592e-01   1.359951407200000e+01  1.69952111e+00   4.20003204e+00   4.36889990e-01
C     6.388833563850000e+00   9.868684698320449e-01   3.551414104000000e+00 -3.87785492e+00   1.24007425e+00   7.80229340e-01
C     7.545638960099999e+00   1.734862732551749e+00   3.560507472000000e+00  2.43312366e+00   7.12933200e-01   2.41228860e-01
C     1.251965291550000e+00   1.835009186752342e+00   6.651107199999999e-02 -1.50811319e+00   6.67087651e+00  -6.74676530e-01
C     2.464985739975000e+00   2.643020631794143e+00   2.025638400000000e-02 -7.07429160e-01   1.34062310e-01  -9.79376670e-01
C     2.660856735225000e+00   3.174503843507997e+00   3.606074680000000e+00 -4.67679280e-01  -1.49875560e-01   6.92722240e-01
C     3.887090384775000e+00   3.945435852349391e+00   3.701739936000000e+00 -1.75605355e+00  -3.79525851e+00  -1.54966931e+00
C     3.712318618650000e+00   1.978788874434372e+00   1.349626151200000e+01 -3.16910203e+00  -2.95132871e+00   1.77429064e+00
C     4.858222010100000e+00   2.635837680220945e+00   1.339741440000000e-01  4.14289028e+00   5.88554060e-01  -9.88188150e-01
C     5.073907279275000e+00   3.205970652162478e+00   3.604572288000000e+00  2.68160500e-02  -4.67574082e+00   1.51170322e+00
C     6.308887956674999e+00   3.733786529655382e+00   3.671696312000000e+00  3.67151219e+00   6.77376611e+00  -9.13097880e-01
C     6.109693722375000e+00   1.868146417984447e+00   1.057861040000000e-01  1.08631418e+00   2.03074032e+00  -4.27900260e-01
C     7.363514049675000e+00   2.693491947563017e+00   1.459892000000000e-02  1.02343340e-01  -2.89251160e+00   1.52205535e+00
C     7.613729938574999e+00   3.141182489862417e+00   3.601131760000000e+00 -3.72535323e+00  -4.17884290e-01  -2.45430790e-01
C     8.771228061450000e+00   3.921263301269715e+00   3.529052712000000e+00  2.37849009e+00  -2.85911450e+00   1.27464901e+00
C     2.437618028175000e+00   4.073750153895623e+00   1.352388270400000e+01 -5.69124670e-01   7.95722260e-01  -8.63948880e-01
C     3.676340501625000e+00   4.855640104105791e+00   1.345718136800000e+01  4.66961940e-01  -4.66833146e+00   1.81101012e+00
C     3.872717166975000e+00   5.285838056486387e+00   3.541029416000000e+00  1.67072386e+00   2.53298932e+00   6.45824670e-01
C     5.113732940849999e+00   6.048416671588091e+00   3.567817064000000e+00  2.67185370e-01  -1.36832482e+00   1.83183060e-01
C     4.898823148349999e+00   4.039928947924070e+00   9.270344799999999e-02 -6.11178900e-02   2.91939989e+00  -1.15774366e+00
C     6.137460061650000e+00   4.821666092541698e+00   2.325409600000000e-02 -9.11185020e-01  -2.01468436e+00   1.04456009e+00
C     6.373779155625000e+00   5.330209957069398e+00   3.622809208000000e+00 -2.63322447e+00  -1.87668847e+00  -2.41589760e-01
C     7.542542747550000e+00   6.104011265559808e+00   3.581730680000000e+00  1.82390714e+00  -9.02006119e+00   7.52879160e-01
C     7.377854026949999e+00   4.181854987211102e+00   8.847276000000000e-02 -1.99531413e+00  -5.35819382e+00  -1.66496725e+00
C     8.545132998674999e+00   4.804513888928153e+00   1.341335346400000e+01  3.85929200e+00  -2.40662728e+00   1.95925063e+00
C     8.785958087999999e+00   5.282657381820218e+00   3.672209032000000e+00  5.68440800e-01   3.40575206e+00  -1.61969444e+00
C     1.007351532967500e+01   5.972708545168365e+00   3.571138048000000e+00 -2.46280609e+00   3.71981470e-01   2.70112500e-01
C     7.407913296899999e+00   1.856315127971304e-01   7.093265776000000e+00  4.90754700e-02   5.53812020e-01  -1.02705882e+00
C     1.270968592800000e+00   8.830125413937829e-01   6.983888184000000e+00 -2.80428499e+00   2.63353181e+00  -3.52917100e-02
C     1.049579005500000e+00   3.805453569365448e-01   9.792781320000000e+00  1.78936729e+00   1.21969641e+00   1.45046862e+00
C     2.328663758700000e+00   1.095335848184978e+00   9.907655488000000e+00 -1.64156752e+00   3.49157130e-01  -3.66028600e-02
C     2.454472009650000e+00   2.457601932485700e-01   6.795020904000000e+00  2.11904506e+00  -3.42922955e+00   4.64120000e-01
C     3.746427908249999e+00   8.798961014339496e-01   6.748196920000000e+00 -2.25909153e+00   2.13239210e-01   4.83495210e-01
C     3.553864881375000e+00   4.209980438369706e-01   1.006743277600000e+01 -3.68478933e+00  -1.99631657e+00  -7.34466420e-01
C     4.687126113600000e+00   1.094922005042065e+00   9.937340072000000e+00  6.77703659e+00   2.57071844e+00  -2.05235390e-01
C     4.953726327525000e+00   2.377500677301750e-01   6.912962687999999e+00  1.01073041e+00  -2.77168494e+00   3.01603590e-01
C     6.159368229824999e+00   9.808553199995551e-01   7.063476472000000e+00  7.82323110e-01  -4.95691769e+00  -8.68596260e-01
C     6.044018061825000e+00   3.558427894763742e-01   9.871299287999999e+00 -1.88317720e+00   3.59814019e+00   6.50246050e-01
C     7.246943743649999e+00   1.159021965792491e+00   9.813947000000001e+00 -7.95071180e-01  -2.47948724e+00  -3.17661250e-01
C     8.617042200524999e+00   2.357473089994222e+00   7.018917704000001e+00  1.26748265e+00  -1.88373436e+00  -1.63823899e+00
C     2.472716879700000e+00   3.030596134711345e+00   6.824836864000000e+00 -7.40001210e-01  -2.41654104e+00   1.10360785e+00
C     2.313743939475000e+00   2.516860722592016e+00   9.838200832000000e+00  6.01003200e-02  -4.64162460e-01   3.41635990e-01
C     3.509342063700000e+00   3.256721769957255e+00   9.752319552000001e+00  2.14045607e+00   2.24191020e-01   1.18068857e+00
C     3.677371327650000e+00   2.248046033600968e+00   6.774788183999999e+00  1.99422893e+00   5.08269899e+00  -2.79292400e-02
C     4.920311280525000e+00   3.099798944082040e+00   6.823425864000000e+00 -4.21868800e-02  -4.99206800e+00   1.81388910e-01
C     4.778395610325000e+00   2.582668058487918e+00   9.826954175999999e+00 -7.99812120e-01  -2.19600955e+00   8.37158300e-02
C     6.082812601575000e+00   3.274300112888805e+00   9.841751792000000e+00 -3.95150810e+00  -4.01435480e+00  -5.18161080e-01
C     6.173540599424999e+00   2.308366777745629e+00   6.926057992000000e+00 -6.88570750e-01   4.71946828e+00  -2.93684460e-01
C     7.411753779224999e+00   3.026858545781671e+00   6.949371112000001e+00 -1.60341518e+00   2.12625058e+00  -1.46171690e-01
C     7.253274566175000e+00   2.570889091261491e+00   9.750179319999999e+00  1.21956318e+00  -2.08199885e+00   1.77201161e+00
C     8.478209838600000e+00   3.196065378658152e+00   9.907477463999999e+00 -3.32320040e-01   3.73588860e+00  -5.48891540e-01
C     9.846026457299999e+00   4.384249388786468e+00   7.006865656000000e+00  1.48160202e+00   4.17676553e+00  -1.13731456e+00
C     3.741063057600000e+00   5.172124117966806e+00   6.985377248000000e+00 -3.56843446e+00  -2.04094000e-03   1.49466050e-01
C     3.524929133775000e+00   4.702428993958496e+00   9.783330407999999e+00  1.72080756e+00  -3.01754879e+00   3.83655160e-01
C     4.736861112150000e+00   5.369631942709835e+00   9.844274863999999e+00  1.91984723e+00  -6.47124730e-01  -2.71086170e-01
C     4.931046417149999e+00   4.469328417434681e+00   6.896953720000000e+00  6.42948670e-01   9.80069850e-01  -3.39283260e-01
C     6.155561431724999e+00   5.191339004951900e+00   6.864153512000001e+00 -1.03817361e+00   1.72611481e+00  -4.40445020e-01
C     6.004442794950000e+00   4.578786022137928e+00   9.859623416000000e+00 -6.04786620e-01   7.77687284e+00   1.27258413e+00
C     7.191672256500000e+00   5.392182999741939e+00   1.006034200800000e+01  1.12566241e+00  -1.40719364e+00  -8.05000130e-01
C     7.345733067974999e+00   4.521841474651901e+00   6.874943343999999e+00  3.08523421e+00  -2.99300964e+00   3.65347420e-01
C     8.628310405724999e+00   5.160780320061967e+00   6.961872368000000e+00  1.89130900e-02   1.10088686e+00  -3.07558350e-01
C     8.409226098750000e+00   4.692930775083751e+00   9.987216712000000e+00  3.18348440e+00  -1.48907713e+00  -1.20141440e-01
C     9.777843706875000e+00   5.384444670927122e+00   9.900897512000000e+00 -5.89701034e+00   4.82683560e-01   5.26380060e-01
