72
Lattice="7.395 0 0 3.6975 6.40425786098592 0 0 0 13.6 " PBC="1 1 1" Properties=species:S:1:pos:R:3:force:R:3 Energy="-559.67609837"
C     1.103625270562500e+01   6.394667291726915e+00   1.317621842400000e+01 -6.74402340e-01  -9.16551700e-02   9.99907070e-01
C     1.245371872575000e+00   5.388648233658691e-01   1.310520412000000e+01 -1.57242260e+00   3.89832626e+00   1.19799090e+00
C     1.219408545225000e+00   8.450539286743554e-01   3.391810352000000e+00  5.73538930e-01  -2.84400422e+00   1.60959554e+00
C     2.575987389150000e+00   1.311863934516736e+00   3.367810296000000e+00 -5.12849813e+00   8.39948603e+00   5.41095050e-01
C     6.165707778450000e+00   6.289195248817682e+00   1.326472096800000e+01  5.14190580e-01   1.74309855e+00  -2.12880580e-01
C     3.730505696775000e+00   6.218326243679551e-01   1.312787260000000e+01 -2.60254567e+00  -5.14624130e-01   1.75024139e+00
C     3.756207610875000e+00   7.894871291817511e-01   3.650189544000000e+00  4.68272228e+00   5.04893997e+00  -3.11950900e-01
C     5.033844312150000e+00   1.577270085346956e+00   3.701687032000000e+00 -1.03092611e+00  -1.34753035e+00   5.76776330e-01
C     8.610343033050000e+00   6.311326955045113e+00   1.313417375200000e+01 -1.15838746e+00   2.36521223e+00   1.34419266e+00
C     6.006683590875000e+00   6.648612959074086e-01   1.330989568000000e+01  6.78994771e+00   1.20519726e+00   4.30203850e-01
C     6.309958050150000e+00   7.579138177190581e-01   3.728953808000000e+00 -6.13374810e+00   3.93426858e+00  -3.40947900e-02
C     7.381968530999999e+00   1.553817308808164e+00   3.513562856000000e+00  5.23280266e+00   1.00173773e+00  -9.47739140e-01
C     1.291103218125000e+00   1.992817337234124e+00   1.309521342400000e+01 -2.58369005e+00   2.79632967e+00   9.10066150e-01
C     2.489521129800000e+00   2.696455645972889e+00   1.270341932000000e+01 -4.13603460e-01   1.39994321e+00   4.44740151e+00
C     2.522507858400000e+00   2.841643245702862e+00   3.519857208000000e+00  1.88162809e+00   3.57767390e-01  -6.10670470e-01
C     3.744676846200000e+00   3.629130133027199e+00   3.672046512000000e+00 -3.61006365e+00   1.19818017e+00   1.01740822e+00
C     3.721587770475000e+00   2.017574533013840e+00   1.317783859200000e+01 -2.12584805e+00   1.42093800e+00  -2.87499373e+00
C     4.859165538150000e+00   2.785569613243217e+00   1.338309958400000e+01  1.85846273e+00  -5.35163450e-01   2.44346605e+00
C     4.960344408825000e+00   3.048031150351988e+00   3.823601512000000e+00  2.13274924e+00  -5.67662353e+00  -2.34932044e+00
C     6.190162932524999e+00   3.623246093033166e+00   3.612945400000000e+00  4.56677841e+00   5.30125849e+00  -3.56377500e-02
C     6.025259202299999e+00   1.998515781835373e+00   1.298775520000000e-01  2.71861302e+00   4.08048574e+00  -2.38875293e+00
C     7.418748155099999e+00   2.933654755399368e+00   7.255259999999999e-02  5.03351670e-01  -5.69998134e+00  -2.73731792e+00
C     7.542577910774999e+00   2.977463401503591e+00   3.414104832000000e+00 -7.93159201e+00  -2.13913847e+00   1.48474173e+00
C     8.706442943775000e+00   3.633088925023358e+00   3.512260248000000e+00  2.07456703e+00   9.42304840e-01  -7.77315360e-01
C     2.436821549700000e+00   4.155056370195931e+00   1.284060578400000e+01  7.01061060e-01   2.22778676e+00   3.04520883e+00
C     3.651978080850000e+00   5.022578164592789e+00   1.315642022400000e+01  1.05279955e+00  -6.13068238e+00  -1.02424090e-01
C     3.643234417725000e+00   5.062317929508239e+00   3.870417744000000e+00  2.73850995e+00  -3.47037820e-01  -1.30461664e+00
C     4.802074880999999e+00   5.886802022362061e+00   3.729398392000000e+00  5.12609583e+00  -3.43585088e+00  -8.54595180e-01
C     4.930757642400000e+00   4.186366402618000e+00   1.350682368000000e+01 -1.33149266e+00   3.63182604e+00  -1.43959863e+00
C     6.197693482875000e+00   4.977356354949179e+00   4.477324000000000e-02 -2.20925648e+00  -2.14395124e+00  -1.15246612e+00
C     6.264003930225000e+00   5.116370762442740e+00   3.651351664000000e+00 -3.58123848e+00   1.89550300e-01   6.40346850e-01
C     7.481604102149999e+00   5.910473056008722e+00   3.725010624000000e+00 -3.65285320e-01  -1.12077869e+01  -1.89685665e+00
C     7.457064719024999e+00   4.363275892593018e+00   1.354699318400000e+01 -1.65235544e+00  -4.75880391e+00   1.24125424e+00
C     8.635721970524999e+00   4.978453660490911e+00   1.325041580800000e+01  2.36683510e+00  -4.76154752e+00  -2.07218691e+00
C     8.668175371724999e+00   5.061447462779909e+00   3.536618120000000e+00  5.34657110e-01   2.18034288e+00   2.56837299e+00
C     9.885729509775000e+00   5.783530098198053e+00   3.810215440000000e+00 -1.52842973e+00  -1.57109501e+00  -1.42004962e+00
C     7.360538597474999e+00   1.169279793692010e-01   7.515294040000001e+00  4.34786359e+00  -2.30708988e+00  -4.11699393e+00
C     1.278282617550000e+00   7.993612779928776e-01   6.979832664000001e+00 -6.32310880e-01  -4.44159519e+00   1.58703460e-01
C     1.148205565875000e+00   5.785243429303338e-01   1.017145183200000e+01  2.71429866e+00   2.37087222e+00   9.90091200e-02
C     2.459599000125000e+00   1.332609567215527e+00   1.028619204000000e+01 -3.26965807e+00  -1.55104600e-01  -1.83283381e+00
C     2.490936273975000e+00   7.058664140908380e-02   6.617311200000001e+00 -2.59006057e+00  -2.57504824e+00   1.18854396e+00
C     3.629298503250000e+00   8.287473432686449e-01   6.419176608000000e+00  1.75097458e+00  -7.04029270e-01   1.39441042e+00
C     3.632642707125000e+00   6.439854646463238e-01   1.054173712800000e+01 -8.14808420e-01   9.74779690e-01  -2.65859980e-01
C     4.814396356049999e+00   1.400076694621004e+00   1.050784334400000e+01  4.26500995e+00  -3.10612710e-01  -3.62910067e+00
C     4.781052633824999e+00   1.288480964388618e-01   6.865772728000000e+00  4.49026541e+00  -2.11495315e+00   5.58987130e-01
C     6.148428436574999e+00   7.733653066153015e-01   7.194742584000000e+00 -3.63023243e+00  -2.65901704e+00  -6.80768720e-01
C     6.087580786649999e+00   5.626980768641232e-01   1.039134751200000e+01  1.46604560e-01   1.48450612e+00  -1.05243370e-01
C     7.322291916299999e+00   1.306665214156302e+00   1.004005339200000e+01 -2.17753761e+00   3.64372670e-01   2.49934195e+00
C     1.316593154550000e+00   2.109530389709543e+00   6.709957392000000e+00 -1.14398015e+00   5.13854147e+00   1.99668380e+00
C     2.509606356525000e+00   2.982416582617672e+00   6.600626856000000e+00 -1.84923004e+00  -1.37182340e-01  -1.77611130e-01
C     2.413966377825000e+00   2.733925741902755e+00   9.968742064000001e+00 -6.43174090e-01  -6.04210580e-01   6.60466900e-01
C     3.550151445150000e+00   3.524817581003519e+00   9.857960272000000e+00  5.61506224e+00  -1.95857360e+00   1.17832269e+00
C     3.621372468300000e+00   2.221810735107163e+00   6.314724800000000e+00  5.13997942e+00   2.47143888e+00   2.80224670e+00
C     5.044216465200000e+00   2.917304685082788e+00   6.592976992000001e+00 -4.18286400e+00  -1.08616198e+00   1.00909028e+00
C     4.927638579300000e+00   2.810144543844238e+00   9.936175911999999e+00 -4.83310908e+00  -2.23853433e+00   2.49923824e+00
C     6.112608239775000e+00   3.523438295988211e+00   1.013558033600000e+01 -4.06325950e-01  -1.50679380e+00   6.17731320e-01
C     6.115905596325000e+00   2.120351728258163e+00   7.047992192000001e+00  3.27662156e+00   3.91274788e+00  -1.68950232e+00
C     7.499408784825000e+00   2.807266022063904e+00   7.023532320000000e+00 -2.49710466e+00  -1.09861782e+00  -1.05027016e+00
C     7.267915409024999e+00   2.807908753382733e+00   1.019890805600000e+01  3.81067741e+00  -4.76526404e+00  -1.79650061e+00
C     8.565588086324999e+00   3.387916130305707e+00   1.007898475200000e+01 -1.85188717e+00   3.64957023e+00   2.28011906e+00
C     9.887749638900001e+00   4.433158962233602e+00   6.939205791999999e+00  2.51309808e+00  -2.42585362e+00   5.80801270e-01
C     3.881185847025000e+00   5.006710270850488e+00   7.277338920000000e+00 -6.84370705e+00   3.40000651e+00  -1.63974056e+00
C     3.706477049325000e+00   4.890009194337267e+00   1.012703042400000e+01 -2.35161449e+00  -2.44570760e-01  -5.39232190e-01
C     4.944916405200000e+00   5.598265485333721e+00   1.016217024000000e+01 -1.46071166e+00  -1.04595217e+00   1.14704862e+00
C     5.013869492774999e+00   4.382124007730469e+00   6.818356192000000e+00 -1.40737610e-01  -3.41542414e+00  -9.18618900e-02
C     6.220639428375000e+00   4.981138197300666e+00   6.662912272000000e+00  2.71122986e+00   2.05906854e+00   1.74645640e+00
C     6.140903432475000e+00   4.850103238930349e+00   1.044252771200000e+01 -1.24507017e+00   4.79719467e+00  -1.10543495e+00
C     7.246586528174999e+00   5.669951481647053e+00   1.075283224800000e+01  4.33031052e+00  -4.80587547e+00  -2.76723161e+00
C     7.461277428674999e+00   4.158289815946866e+00   6.857957216000000e+00 -9.13695410e-01   5.15128375e+00  -8.77448320e-01
C     8.608523160524999e+00   5.046944508515310e+00   6.949739399999999e+00 -2.03715470e-01   8.77593500e-01  -5.31082380e-01
C     8.577968795324999e+00   4.816120965873618e+00   1.050842719200000e+01 -4.99271230e-01   4.02271210e-01  -1.18746526e+00
C     9.849981894899999e+00   5.489608412862975e+00   1.044662471200000e+01 -1.36236249e+00   3.38311453e+00  -1.06265405e+00
