32
Lattice="9.732 0 0 4.866 8.42815922963016 0 0 0 30 " PBC="1 1 1" Properties=species:S:1:pos:R:3:force:R:3 Energy="-257.68444831"
C    -2.645238120397878e-03   2.466546018771263e-03   2.998238175678023e+00  2.44670410e-01  -9.63768200e-02   5.97339200e-02
C     1.219745898903686e+00   7.021688128751296e-01   3.000976708468201e+00 -2.47786100e-01   6.86886900e-02  -5.60415400e-02
C     2.431814517777299e+00  -2.603116436685981e-03   2.999160657890347e+00  2.17165990e-01   2.12893510e-01   3.70796800e-02
C     3.652716325844555e+00   6.991900493605211e-01   3.000521899000854e+00 -2.28934260e-01   3.20485980e-01  -2.10122500e-02
C     4.866046734378735e+00   1.846559612018856e-03   3.001131916873557e+00  9.34082000e-02  -2.59616110e-01  -1.99189900e-02
C     6.083078140302563e+00   6.984315459104399e-01   2.997205702823027e+00 -2.80553200e-02   4.10355650e-01   5.96106500e-02
C     7.296421594378163e+00  -1.853122697792999e-03   3.001791671020228e+00  2.10906710e-01   1.13236510e-01  -3.55698300e-02
C     8.515469427501344e+00   7.021907006139201e-01   2.999877022994526e+00 -1.71434150e-01   1.07978510e-01  -6.70097000e-03
C     1.218070595999155e+00   2.108667643061532e+00   2.996184431137034e+00 -2.20318020e-01  -2.04071020e-01   4.17678600e-02
C     2.431267871047090e+00   2.807011302955513e+00   2.999024081838677e+00  2.17903400e-01   1.73672520e-01   1.21760000e-04
C     3.652650657169528e+00   2.110685453682756e+00   2.998015030531315e+00 -1.73232390e-01  -4.25667620e-01   3.05054100e-02
C     4.867463506912928e+00   2.806600503223536e+00   3.001065909210412e+00  6.89947400e-02   3.59570540e-01  -2.61703700e-02
C     6.084946069616975e+00   2.110345138607258e+00   3.000110422746090e+00 -2.69446200e-02  -4.07387960e-01  -5.23697000e-03
C     7.301372220091378e+00   2.809268223444760e+00   3.000362235391985e+00 -2.47113180e-01   1.44626820e-01   9.78800000e-04
C     8.512625532277433e+00   2.110124526669588e+00   2.999141048608368e+00  1.93937070e-01  -2.65219120e-01   2.54700000e-04
C     9.728805462436036e+00   2.808574854962340e+00   2.998164771277422e+00  2.64272020e-01   6.61904500e-02   7.54901000e-03
C     2.433305060580206e+00   4.210596504363190e+00   3.002577995720245e+00 -9.44043500e-02   2.64057390e-01  -9.29755100e-02
C     3.650064055922367e+00   4.918349991839658e+00   2.995576562942398e+00 -3.17845700e-02  -2.55071250e-01   4.07776100e-02
C     4.868779456669218e+00   4.216024363497073e+00   2.998345417988853e+00 -8.77875100e-02  -9.72234600e-02   1.73221100e-02
C     6.085205569296755e+00   4.917643711245645e+00   3.001036589140256e+00 -1.84476080e-01   3.88496800e-02  -4.37429100e-02
C     7.295853038986595e+00   4.213845841075443e+00   3.000243680417468e+00  3.71124730e-01   2.91757100e-02  -4.52443000e-03
C     8.517767821915768e+00   4.914279847859946e+00   2.997277321001521e+00 -1.57829670e-01   1.19105970e-01   2.97158900e-02
C     9.735891230811243e+00   4.214191380209356e+00   3.000862122503911e+00 -2.76083970e-01  -2.27765300e-02  -6.26916500e-02
C     1.094575555605653e+01   4.920640538988485e+00   2.995712422695083e+00  3.91731560e-01  -3.64442800e-01   8.67001000e-02
C     3.647368627410335e+00   6.319516904345531e+00   2.995805969559362e+00  1.85452810e-01   2.21132330e-01   5.11662000e-02
C     4.867912258659496e+00   7.023694137538164e+00   3.003492776553855e+00 -2.34759260e-01   2.78274500e-02  -1.01743310e-01
C     6.082151885906310e+00   6.323233682936678e+00   2.996925168654280e+00  1.24364290e-01  -3.78926700e-02   7.75905600e-02
C     7.299850663935207e+00   7.025883987965710e+00   3.000919523786674e+00 -6.41289200e-02  -2.03219080e-01  -5.07929500e-02
C     8.515516063084622e+00   6.322252820596495e+00   2.997310499450022e+00  1.16753610e-01  -1.15739710e-01   3.03441800e-02
C     9.734571566267102e+00   7.022502278981242e+00   3.000796745728543e+00 -8.08762500e-02   5.27798700e-02  -7.59717000e-03
C     1.095200473654699e+01   6.319736494957598e+00   3.000776492044598e+00 -1.94716890e-01   2.12290070e-01  -3.75105900e-02
C     1.216514054655689e+01   7.025354349596719e+00   2.999815175465562e+00  4.99799900e-02  -1.88213480e-01   1.01098000e-03
