32
Lattice="9.86 0 0 4.93 8.53901048131456 0 0 0 30 " PBC="1 1 1" Properties=species:S:1:pos:R:3:force:R:3 Energy="-257.43809778"
C     1.257858638200000e+00   7.942620371045360e-01   3.501931800000000e+00  2.73647000e-03  -8.20881960e-01  -1.27210820e-01
C     2.478008791000000e+00   1.514768029627653e+00   3.541639800000000e+00 -3.34277600e-02  -7.01210230e-01  -3.18206750e-01
C     3.705436659100000e+00   8.104700182867288e-01   3.524676300000000e+00  2.64747960e-01  -1.77399007e+00   2.75265000e-01
C     4.952091477900000e+00   1.457338658474098e+00   3.580185600000000e+00  1.09299720e+00   4.05346820e-01  -5.38861020e-01
C     6.219343097199999e+00   7.670405255953440e-01   3.549903900000000e+00 -1.31779529e+00   1.23635040e-01  -7.96829700e-02
C     7.421690576300000e+00   1.530293743872494e+00   3.498433800000000e+00  2.30820530e-01  -1.67640875e+00  -1.99975650e-01
C     8.660268231000000e+00   7.799098390699616e-01   3.498957000000000e+00 -2.84286340e-01   8.13236450e-01  -5.15872670e-01
C     9.896777060500000e+00   1.497284149499538e+00   3.457591200000000e+00 -5.25502290e-01  -6.44220830e-01   5.59092120e-01
C     2.468889572800000e+00   2.921193948186114e+00   3.550488000000000e+00  8.60603030e-01   4.05094140e-01   1.66087180e-01
C     3.725710593900000e+00   3.598319803498420e+00   3.562472400000000e+00 -1.43501930e-01   7.72438980e-01   2.50055930e-01
C     4.974459035800000e+00   2.865251987268070e+00   3.539278500000000e+00 -1.38614804e+00   1.64904387e+00   4.14553000e-02
C     6.155243237199999e+00   3.629475151745643e+00   3.472878300000000e+00  1.43639582e+00   4.85711860e-01  -5.79784100e-02
C     7.400606593199999e+00   2.936385360170662e+00   3.414888000000000e+00  6.08766500e-01   3.44214240e-01   9.66537510e-01
C     8.670757594800000e+00   3.626865117802326e+00   3.508842000000000e+00 -1.04371425e+00  -6.53765490e-01  -5.14271660e-01
C     9.876911576199998e+00   2.898782632060515e+00   3.516891900000000e+00  9.25412580e-01   1.24194111e+00  -9.62558000e-02
C     1.111632106980000e+01   3.641942448606863e+00   3.557742000000000e+00 -5.32501850e-01   9.72486300e-02  -9.16408300e-02
C     3.716404824500000e+00   5.042739707627221e+00   3.616113600000000e+00  7.23807590e-01  -2.77127160e-01  -5.42227220e-01
C     4.962666722300000e+00   5.753697207851393e+00   3.528443400000000e+00 -7.13366400e-01   3.98127310e-01   1.21891580e-01
C     6.195684569500000e+00   5.090788207257553e+00   3.482637900000000e+00 -7.77949120e-01  -2.87352515e+00   2.04605790e-01
C     7.426407797500000e+00   5.731439593914434e+00   3.513993900000000e+00  8.44643870e-01   1.82392812e+00  -4.28085230e-01
C     8.680173056699999e+00   5.025940058408870e+00   3.530446800000000e+00 -8.37929580e-01   1.20284523e+00   2.30392470e-01
C     9.875963931599999e+00   5.785649928897239e+00   3.602503200000000e+00  8.28168470e-01  -8.87308370e-01  -4.18319340e-01
C     1.113486694100000e+01   5.076157210530806e+00   3.574010100000000e+00 -1.04249287e+00  -2.74533230e-01   6.17768000e-01
C     1.235754643030000e+01   5.793111401644767e+00   3.635279700000000e+00  6.18897500e-02  -1.57452715e+00  -5.15878310e-01
C     4.967586369299999e+00   7.163986857871844e+00   3.496055700000000e+00 -1.37952611e+00   1.19776684e+00   5.24046300e-02
C     6.178160736600000e+00   7.890267527012271e+00   3.503066700000000e+00  6.59066540e-01   4.75768510e-01  -3.51894310e-01
C     7.417304799000000e+00   7.188908899248878e+00   3.475499400000000e+00  3.38654370e-01  -9.22543460e-01   4.64578380e-01
C     8.653449005700001e+00   7.896214350080856e+00   3.500563800000000e+00 -1.11568910e+00   1.23801044e+00   3.51565460e-01
C     9.866827902099999e+00   7.202915865089745e+00   3.592631400000000e+00  3.60409450e-01  -6.40347100e-01  -3.52837820e-01
C     1.111183092440000e+01   7.872429192559132e+00   3.558765600000000e+00 -5.08653100e-02   1.62440112e+00   2.53036270e-01
C     1.232468521950000e+01   7.190716693157598e+00   3.562966200000000e+00  1.72790978e+00   2.82985600e-01  -6.63187300e-02
C     1.357466290760000e+01   7.909465955054664e+00   3.477909600000000e+00  2.17666320e-01  -8.61355380e-01   6.60781930e-01
