32
Lattice="10.132 0 0 5.066 8.77456939114393 0 0 0 30 " PBC="1 1 1" Properties=species:S:1:pos:R:3:force:R:3 Energy="-256.55232902"
C     7.533194298447640e-04   2.158637096532465e-04   2.999392156108171e+00 -4.71930200e-02   2.56469200e-02   1.30252500e-02
C     1.265889461967621e+00   7.317625909384299e-01   3.000355782612062e+00  4.89146500e-02  -7.44488000e-03  -9.30663000e-03
C     2.532364151141576e+00  -1.171709070631238e-04   2.999854778575487e+00  3.02837700e-02   8.03787000e-03  -3.51039000e-03
C     3.798662587475036e+00   7.318903181980950e-01   2.999698640794487e+00  2.97710200e-02  -1.91938300e-02  -8.39333000e-03
C     5.067118371732888e+00   1.175804088705153e-03   2.998861219994247e+00 -1.02942640e-01  -3.84745700e-02   8.94221000e-03
C     6.331932023432763e+00   7.311036540350471e-01   2.999433002535908e+00  6.88540000e-02   5.10689300e-02  -8.08497000e-03
C     7.599529761072475e+00   1.191637294167495e-03   2.998870614907339e+00 -1.45328000e-02  -5.38732200e-02   1.21840000e-02
C     8.865628808274996e+00   7.320495034476477e-01   3.000671296722596e+00 -5.71239000e-03  -3.88793700e-02  -1.68337100e-02
C     1.267294924604550e+00   2.194641426907781e+00   2.999899931234285e+00 -1.67211800e-02  -3.12043800e-02   4.34459000e-03
C     2.533913342667272e+00   2.925837679237021e+00   2.999049951668637e+00 -3.40926700e-02   9.26139000e-03   1.59217200e-02
C     3.798942826397510e+00   2.193996784772418e+00   2.998952371348610e+00  1.43019700e-02  -1.34172600e-02   6.73964000e-03
C     5.065078722427410e+00   2.924365239796176e+00   2.999509143461994e+00  5.26125000e-02   5.54876200e-02  -6.53252000e-03
C     6.333479626335605e+00   2.194514405116918e+00   2.999222337604637e+00 -6.75501700e-02  -2.79661800e-02   1.51391000e-03
C     7.599611925739071e+00   2.925036762953746e+00   2.998910037142086e+00 -1.78471800e-02  -2.05669600e-02   9.82328000e-03
C     8.864474475729706e+00   2.192737270412930e+00   3.000367218560267e+00  6.88556300e-02   3.73445800e-02  -1.14816000e-03
C     1.013222263622877e+01   2.923595743841848e+00   3.000708316987522e+00 -1.26346300e-02   5.12852500e-02  -1.31412900e-02
C     2.533958113092921e+00   4.388543396188957e+00   3.001257157728299e+00 -3.49074700e-02  -2.38578000e-02  -3.13743600e-02
C     3.799422086375965e+00   5.119700895517662e+00   2.999539061211655e+00  2.39643500e-02  -4.21757300e-02   1.15194000e-02
C     5.065190849316123e+00   4.388138477853023e+00   2.999301226525243e+00  5.37353100e-02  -4.01923400e-02   4.39260000e-03
C     6.333532886462138e+00   5.118186723145514e+00   2.999627730324524e+00 -4.08896800e-02   1.08144800e-02  -5.29221000e-03
C     7.600178709701203e+00   4.386397100223136e+00   2.999096869850454e+00 -4.37244200e-02   4.14987100e-02  -1.10368000e-03
C     8.865169486633979e+00   5.118297168317752e+00   2.998750614650170e+00  5.55146200e-02  -3.23862100e-02   1.59983000e-03
C     1.013219647911402e+01   4.386505915296834e+00   2.998921326915323e+00  9.27649000e-03   1.84125700e-02   7.71038000e-03
C     1.139923371398694e+01   5.119082278901762e+00   2.999085600034956e+00 -2.86466100e-02  -1.16936000e-02   1.30710800e-02
C     3.799750889628996e+00   6.579714877095043e+00   2.999762331306274e+00 -2.41620000e-04   1.09912990e-01  -7.28122000e-03
C     5.065900793730933e+00   7.313357751241823e+00   2.999371807328638e+00  2.82021200e-02  -6.41158700e-02   2.22451000e-03
C     6.333208210450529e+00   6.581483294337695e+00   2.999592657075219e+00 -1.05058800e-02  -2.04977800e-02  -5.20282000e-03
C     7.600028000007051e+00   7.311667225695063e+00   2.998835033319119e+00 -3.65473000e-02   1.71883700e-02   9.56883000e-03
C     8.865955972508354e+00   6.579805468136529e+00   2.998917862269937e+00 -1.64706600e-02   4.83315100e-02  -1.52085000e-03
C     1.013090162665791e+01   7.312616085854276e+00   2.999157755469435e+00  7.03601000e-02  -1.48432000e-03  -3.19236000e-03
C     1.139865129395977e+01   6.581946699786677e+00   2.999310217811118e+00 -1.47338400e-02  -1.42902500e-02  -5.30712000e-03
C     1.266555185782728e+01   7.312330737917651e+00   2.998995603806612e+00 -8.75238000e-03   1.74233400e-02   4.64441000e-03
