52
Lattice="8.88768389401873 1.33226762955019e-15 0 4.44384194700937 7.69696003302603 0 0 0 30 " PBC="1 1 1" Properties=species:S:1:pos:R:3:force:R:3 Energy="-419.29049452"
C     1.311250842323425e+01   7.387151077285275e+00  -2.161505999999989e-01 -1.93741954e+00   2.52316000e-02   3.56783820e-01
C     9.321999232095314e+00   7.195571740928967e+00  -1.452251999999987e-01 -2.23207920e-01   1.57499710e-01  -7.34517490e-01
C     1.069396441978034e+01   6.826972175991497e+00  -1.794831000000023e-01 -2.60890300e-02  -2.27822580e+00   5.13079260e-01
C     1.106711715985185e+01   5.392876969259508e+00  -1.438434000000015e-01 -2.07381072e+00   1.73780893e+00  -8.62446800e-02
C     6.939040892765782e+00   6.584125236145767e+00  -1.392075000000013e-01 -6.62458200e-01   1.57733454e+00  -9.24407040e-01
C     8.278659132727689e+00   6.194955006740921e+00  -2.057840999999989e-01  1.61741569e+00   6.20352260e-01   1.10645135e+00
C     8.661720262800404e+00   4.845308305461280e+00  -1.251977999999987e-01 -1.71268900e+00  -1.38194865e+00  -3.37368950e-01
C     9.995149075250930e+00   4.437714093741423e+00  -1.104240000000019e-01  1.59400862e+00  -2.18029080e-01  -1.65395070e-01
C     1.035846683767552e+01   3.050564570472411e+00  -1.428344999999993e-01 -4.67987800e-01  -1.91929680e-01  -4.78535740e-01
C     4.545909443849285e+00   6.009696029113248e+00  -2.181405000000005e-01 -2.93165030e-01  -2.27852900e-02   4.53771230e-01
C     5.907203056165155e+00   5.630055559860744e+00  -1.632500999999991e-01 -9.48598000e-03  -1.02739642e+00  -1.95161360e-01
C     6.247194247891205e+00   4.244035257597733e+00  -1.804136999999990e-01 -4.37159400e-02  -1.20102920e-01   3.33672070e-01
C     7.605245544213714e+00   3.812901202109326e+00  -1.461869999999976e-01  2.63523360e-01   4.03831576e+00   6.62180900e-02
C     7.928350625427079e+00   2.512626343063720e+00  -1.568892000000019e-01  2.11943700e+00  -4.77377098e+00  -3.23225350e-01
C     9.345445294361525e+00   2.049439067226381e+00  -2.116019999999992e-01 -1.66296359e+00   1.65438651e+00   8.31927340e-01
C     3.511664866856131e+00   5.004001533423810e+00  -1.753934999999984e-01  1.19378566e+00   4.66795200e-01  -4.78597450e-01
C     3.867974868298000e+00   3.633578735813591e+00  -2.409642000000005e-01 -4.25003780e-01  -1.25604240e-01   7.11944180e-01
C     5.231415433971883e+00   3.252591837343041e+00  -1.852008000000005e-01 -1.27370100e-01   3.29539670e-01  -3.86932920e-01
C     5.571927666177753e+00   1.884687177176237e+00  -1.760930999999992e-01 -5.18682770e-01  -1.04259753e+00  -2.87945000e-02
C     6.922004354826286e+00   1.471385977472537e+00  -1.740254999999991e-01  4.94339160e-01   9.02741910e-01   1.82376020e-01
C     7.258515662807098e+00   9.314545452944770e-02  -1.728455999999987e-01  1.69884753e+00   4.05897190e-01  -3.29426430e-01
C     2.830192637628253e+00   2.657106518574052e+00  -2.182358999999998e-01  3.30732090e-01  -2.33039340e-01   7.94076600e-02
C     3.163031510176396e+00   1.262082851255148e+00  -2.308544999999995e-01  9.03912810e-01   9.62080270e-01   8.16527200e-02
C     4.543227226397799e+00   8.830225018801061e-01  -1.903991999999981e-01 -1.66828710e-01  -1.03019700e-02   8.67406600e-02
C     7.771856068102901e-01   6.827603018835557e-01  -1.908750000000019e-01  8.96079440e-01  -1.62746010e-01  -5.72838720e-01
C     2.160491612442049e+00   2.954367271291068e-01  -2.303031000000004e-01 -7.62797100e-01  -1.29691679e+00   7.22537750e-01
C     2.381764191623292e-01   2.922412572030520e-01   3.590598900000000e+00  1.36046070e-01   4.06145940e-01  -6.89604500e-01
C     7.075182879515609e+00   7.413261936612646e+00   3.561454500000000e+00 -4.97910800e-02  -6.26987130e-01  -4.42924510e-01
C     3.998484015913792e+00   9.356378430707819e-02   3.552342000000000e+00  2.65006180e-01   3.58663120e-01   4.43255980e-01
C     9.486961043987900e+00   6.828865628158878e+00   3.590883600000000e+00 -7.24760490e-01  -9.03851390e-01   2.20308750e-01
C     1.084373642493476e+01   7.203754302167260e+00   3.627804300000000e+00  6.22303700e-02   1.27794779e+00  -4.55237000e-02
C     1.185264074740476e+01   6.231445293638347e+00   3.636874500000000e+00  1.09836365e+00  -6.94907880e-01  -7.59132210e-01
C     4.352546949365946e+00   6.617441219757221e+00   3.586325700000000e+00 -4.16871870e-01  -5.20051650e-01   1.91480200e-01
C     5.398339203859932e+00   5.620992158516619e+00   3.556851300000000e+00 -1.66083517e+00   8.46764630e-01   6.99912300e-02
C     6.728298887186781e+00   6.027902880185811e+00   3.560867100000000e+00  1.63004959e+00   3.16518500e-02   2.33654980e-01
C     7.778118195700173e+00   5.047507291510180e+00   3.622799400000000e+00 -1.29129580e+00   6.21723000e-03  -3.56824890e-01
C     9.130809019325840e+00   5.426327187853884e+00   3.632453100000000e+00 -3.58515500e-02   1.34359802e+00  -8.86486300e-02
C     1.012912779921871e+01   4.461409800950581e+00   3.631554600000000e+00  1.53184954e+00  -1.52000327e+00  -8.71551440e-01
C     1.151380277529845e+01   4.841331055304979e+00   3.535216800000000e+00 -6.84872120e-01   7.19037810e-01   1.09211512e+00
C     3.653016101622229e+00   3.885288725133867e+00   3.549450600000000e+00  7.18747440e-01  -1.54620340e+00  -2.97300290e-01
C     5.030401843760174e+00   4.266112063203781e+00   3.556947600000000e+00  2.49256130e-01  -1.10006243e+00  -3.13138010e-01
C     6.072827088083333e+00   3.260520091021943e+00   3.528699600000000e+00 -1.51511276e+00   1.28892180e-01   7.33276620e-01
C     7.411185010550124e+00   3.670144452919311e+00   3.592401600000000e+00  1.34201104e+00  -3.57462980e-01  -1.13470630e-01
C     8.453566216406429e+00   2.675055213607209e+00   3.593325000000000e+00 -6.37886240e-01  -2.07445100e-01  -4.65005840e-01
C     9.813061228622301e+00   3.047900960484429e+00   3.558377100000000e+00 -9.11153700e-02   1.45007363e+00   8.54278960e-01
C     1.950803421066658e+00   2.086436352880984e+00   3.597258600000000e+00  6.31038180e-01  -9.79508890e-01  -1.17984752e+00
C     3.337844742981707e+00   2.465729381357732e+00   3.533025900000000e+00 -9.82953150e-01   9.39824510e-01   6.97185340e-01
C     4.337970300114036e+00   1.472269665453581e+00   3.595020000000000e+00  9.08524640e-01   4.05452960e-01  -4.91636300e-01
C     5.725202884997159e+00   1.868130092516503e+00   3.603130800000000e+00 -5.76374700e-01   8.08808630e-01  -4.29993860e-01
C     6.756159684255293e+00   9.156983293258648e-01   3.609205800000000e+00 -8.21447140e-01  -1.47526698e+00  -1.11617870e-01
C     8.100539812427870e+00   1.292628929860606e+00   3.550170600000000e+00  8.59830750e-01   1.81185110e-01   6.78147860e-01
C     1.605264224176071e+00   6.839039931744133e-01   3.516783600000000e+00  7.11383000e-02   1.00896249e+00   9.64284620e-01
