52
Lattice="8.88768389401873 1.33226762955019e-15 0 4.44384194700937 7.69696003302603 0 0 0 30 " PBC="1 1 1" Properties=species:S:1:pos:R:3:force:R:3 Energy="-419.35246538"
C     1.253106792163594e+01   6.760750995525392e+00  -5.589300000000463e-03 -1.53346037e+00  -1.41571211e+00  -3.44466970e-01
C     8.741298141337285e+00   6.536929786329816e+00   8.630910000000000e-02 -2.23733600e-01   2.11056052e+00   1.22198520e-01
C     1.010971443240187e+01   6.161024036023070e+00   6.993810000000000e-02  2.72264250e-01  -4.14166420e-01  -3.02178280e-01
C     1.046569492294344e+01   4.759697405105199e+00   4.897320000000000e-02 -1.28297119e+00   4.23294840e-01   6.15156740e-01
C     6.343684855613070e+00   5.940810776841557e+00  -2.403959999999827e-02  3.55515770e-01   1.73995986e+00   4.79271250e-01
C     7.705078676577491e+00   5.580708040020405e+00   8.552670000000000e-02  5.36321160e-01  -1.19874982e+00  -4.08357300e-01
C     8.039421967371032e+00   4.175426788008721e+00   1.015674000000000e-01  6.53975060e-01   9.93484220e-01  -1.33646060e-01
C     9.400313323082587e+00   3.747367052295498e+00   1.021071000000000e-01  1.23223226e+00   1.79883414e+00  -3.29948250e-01
C     9.764614996570081e+00   2.387712070858448e+00   6.140549999999999e-02  8.43832300e-02  -2.06948960e-01  -1.15289090e-01
C     3.982265818182158e+00   5.315826089061590e+00  -9.135600000000466e-03 -5.20123280e-01   3.47184412e+00   1.94485320e-01
C     5.340849309069549e+00   4.967125090041679e+00  -2.885339999999914e-02 -5.34022290e-01  -1.38581400e-01  -1.05231700e-02
C     5.674073329427037e+00   3.615161526823408e+00   4.858800000000000e-03 -8.20539990e-01  -1.18934864e+00   2.62244520e-01
C     7.011661089128371e+00   3.227431090761773e+00   7.041480000000000e-02  8.48594710e-01  -9.99649470e-01  -2.29154490e-01
C     7.377190196188959e+00   1.851557921815111e+00   4.390140000000000e-02 -7.47460200e-01  -1.22392911e+00  -1.30234500e-01
C     8.733139466389236e+00   1.412098680419056e+00   1.986630000000000e-02 -2.26569480e-01   1.10915926e+00  -1.90724600e-02
C     2.946030888875313e+00   4.394883820867286e+00   7.615350000000000e-02 -7.19628200e-01  -1.82211840e+00  -5.87322640e-01
C     3.273106542800132e+00   2.992388252629660e+00   6.167760000000001e-02 -5.00705150e-01   2.44694360e-01  -1.02531080e-01
C     4.637654069508184e+00   2.620128321380324e+00   3.940080000000000e-02 -2.87972120e-01   1.24109082e+00  -4.92445900e-02
C     4.928116554175833e+00   1.271573664789740e+00   6.246119999999999e-02  2.48298200e+00  -1.93603753e+00  -1.04617690e-01
C     6.345256861394033e+00   8.499177228518755e-01   2.059140000000000e-02 -8.24690440e-01   7.30189570e-01   2.23286840e-01
C     1.113412345402192e+01   7.172520962000724e+00   1.424310000000000e-02  4.87638500e-01  -9.61763730e-01   1.85861380e-01
C     2.247417383637142e+00   1.990376213527375e+00   4.141530000000000e-02 -2.22513160e-01   9.55709640e-01   2.06635150e-01
C     2.570385994410921e+00   6.078143093450430e-01   5.522520000000000e-02  2.53370490e-01   1.13745544e+00  -1.23016710e-01
C     3.926885812263629e+00   2.820623354417782e-01   9.957540000000001e-02  1.14231087e+00  -2.53396335e+00  -3.91285570e-01
C     1.816013339457658e-01   5.558282716064200e-02  -4.738979999999771e-02  1.28260513e+00  -1.01377594e+00   4.27985090e-01
C     6.012452387492901e+00   7.340877569341718e+00  -7.650000000012369e-04 -1.20712192e+00  -8.74314790e-01  -3.23116150e-01
C     8.213857476208305e-01   9.377318010469434e-01   3.276750900000000e+00  9.74983880e-01   5.21308600e-02   6.27454200e-01
C     3.245457134244240e+00   3.326587640165850e-01   3.285601500000000e+00 -1.30105503e+00   8.60426320e-01   4.29269340e-01
C     4.592652169668455e+00   7.249800518881132e-01   3.401296200000000e+00  2.53517510e-01   1.30483206e+00  -5.26489950e-01
C     1.004671981854431e+01   7.455040727777084e+00   3.446599800000000e+00  7.60077180e-01   6.74890200e-02   3.52118300e-02
C     6.973547854555704e+00   1.586492783207582e-01   3.445307400000000e+00  2.99135270e-01  -5.53080100e-02  -4.84638100e-02
C     1.245332606201755e+01   6.886365922002193e+00   3.405738600000000e+00 -3.55244500e-02  -8.37627380e-01   2.55237660e-01
C     4.936129604990754e+00   7.269870034280955e+00   3.334444800000000e+00 -5.54144140e-01  -5.43558760e-01  -1.13281230e-01
C     5.955848461209756e+00   6.284711412799560e+00   3.312415200000000e+00  1.15083920e-01  -5.66889230e-01   2.78015580e-01
C     7.321718742402404e+00   6.668673648139307e+00   3.290733000000000e+00  6.99504910e-01  -6.56224090e-01   1.32058770e-01
C     8.361264777095725e+00   5.670389092840351e+00   3.331191000000000e+00 -8.87579130e-01   8.68725380e-01   3.02593280e-01
C     9.710464740704065e+00   6.083951758276270e+00   3.432066000000000e+00 -2.06470260e-01  -2.63493940e-01  -2.83687050e-01
C     1.071993436430675e+01   5.109901312540569e+00   3.423451200000000e+00  1.62654181e+00  -6.50293050e-01  -3.56503800e-02
C     3.226795801049929e+00   5.496185258903766e+00   3.434829900000000e+00 -4.62172260e-01  -1.68266770e-01  -3.45349850e-01
C     4.253049015768905e+00   4.493765819707093e+00   3.377452800000000e+00  3.07311450e-01   3.89275900e-01   2.69696830e-01
C     5.639766337179596e+00   4.891305800418162e+00   3.389730300000000e+00 -5.02104840e-01   2.88314800e-02  -4.69248770e-01
C     6.682539934286229e+00   3.906349455046354e+00   3.364157100000000e+00 -2.11360652e+00  -4.00591800e-02  -6.95772000e-02
C     8.010621694437500e+00   4.300883541956907e+00   3.336568800000000e+00  1.00783610e+00   1.79842100e-01   1.72730930e-01
C     9.028387304376222e+00   3.328386419724861e+00   3.334904100000000e+00  3.73920390e-01  -1.30391943e+00   3.26453820e-01
C     1.039205739498782e+01   3.719021072745015e+00   3.346162500000000e+00 -1.78592690e-01   1.67904450e-01  -2.51215400e-01
C     2.505934556382313e+00   2.723519122436104e+00   3.252839700000000e+00  1.67981266e+00  -4.09429670e-01   9.91687600e-01
C     3.913706534295267e+00   3.117009270657789e+00   3.338064000000000e+00 -6.63196960e-01  -5.81478370e-01  -2.88053570e-01
C     4.954683263905704e+00   2.123225050918772e+00   3.352319400000000e+00 -7.62171320e-01   8.45941700e-02   2.48614380e-01
C     6.318678865947722e+00   2.526102719471445e+00   3.360993900000000e+00  2.16007880e-01  -2.94152440e-01   4.80258610e-01
C     7.346076103339759e+00   1.527903061641620e+00   3.423298800000000e+00 -7.09717000e-01   3.62923360e-01  -2.67257670e-01
C     8.708550978220174e+00   1.915993407554258e+00   3.379990500000000e+00 -5.39114150e-01   1.27380741e+00  -4.89304050e-01
C     2.189591001123522e+00   1.319326913299065e+00   3.273252900000000e+00  5.72970590e-01   7.10345750e-01  -3.85662880e-01
