52
Lattice="8.88768389401873 1.33226762955019e-15 0 4.44384194700937 7.69696003302603 0 0 0 30 " PBC="1 1 1" Properties=species:S:1:pos:R:3:force:R:3 Energy="-418.88963959"
C     1.300949398999357e+01   7.363632631065609e+00  -6.022859999999852e-02  1.80119571e+00  -2.34791246e+00  -1.15895720e-01
C     9.273250108153167e+00   7.115804295658062e+00  -1.626782999999996e-01  1.05123175e+00   1.22099485e+00   7.31273000e-01
C     1.065931556186850e+01   6.712177328046469e+00  -2.346512999999995e-01 -8.07657040e-01   1.93544987e+00  -2.55896530e-01
C     1.094652417658014e+01   5.352773806293600e+00  -2.500691999999987e-01  2.32043202e+00  -1.06164920e-01   2.85526300e-01
C     6.896960286955233e+00   6.553758573678609e+00   5.963010000000000e-02 -2.29570430e-01  -6.69114760e-01   2.79442800e-02
C     8.263657255558421e+00   6.158036691896227e+00  -9.406169999999747e-02 -5.93421890e-01  -1.15808491e+00  -3.83115450e-01
C     8.591302743330861e+00   4.747864098755077e+00  -2.282091000000008e-01  6.52840720e-01   1.39539120e+00   7.13455340e-01
C     9.977054817321614e+00   4.358675396646159e+00  -1.902240000000006e-01 -1.45713013e+00  -3.00364850e-01  -1.65771970e-01
C     1.032100405020930e+01   3.000467751573151e+00  -3.490289999999874e-02 -1.05530758e+00  -1.53694441e+00   3.05948160e-01
C     4.464331393117290e+00   5.956494718355488e+00  -8.152469999999923e-02  9.57851450e-01   1.55406850e-01   2.82687800e-02
C     5.871453280883570e+00   5.567142070997931e+00  -1.055909999999827e-02 -1.25520136e+00  -5.70971990e-01  -4.40679640e-01
C     6.193694256965650e+00   4.166685658381051e+00  -1.308077999999995e-01 -2.24387030e-01   6.48368840e-01   2.07911490e-01
C     7.575242012113501e+00   3.810227663042906e+00  -1.867886999999975e-01 -1.10374070e+00  -2.63839104e+00   2.93531700e-02
C     7.896029451902864e+00   2.362161627190862e+00  -1.575837000000000e-01  1.73722230e-01   2.60323999e+00   2.74200610e-01
C     9.234924501046292e+00   2.003236294345499e+00   1.230840000000000e-02  2.45280667e+00  -4.74747040e-01  -4.44493800e-01
C     3.448553912356882e+00   4.974795649498776e+00  -1.910600999999978e-01 -1.89407700e-02  -4.96885930e-01   8.18043280e-01
C     3.789503551913339e+00   3.588328307797222e+00  -2.149710000000127e-02  3.78687610e-01  -5.85957600e-02  -7.32951240e-01
C     5.138812344671217e+00   3.171087496071765e+00  -9.786090000000058e-02  1.63857313e+00   7.69397090e-01   3.95303890e-01
C     5.516938321614951e+00   1.792897696095274e+00  -8.823059999999927e-02 -5.12243740e-01   2.78660910e-01  -1.24957530e-01
C     6.884719098834609e+00   1.404108851059914e+00  -1.675121999999973e-01 -6.32889620e-01  -2.81127090e-01  -4.39544400e-02
C     7.259805043511019e+00   3.707841161331840e-02  -2.107667999999983e-01 -3.01673678e+00  -5.12562400e-01   3.86878690e-01
C     2.802902559807900e+00   2.577191599548972e+00   7.338930000000000e-02 -1.36868008e+00   1.01793457e+00  -2.92475550e-01
C     3.126945647136102e+00   1.210855425897082e+00   1.397403000000000e-01 -1.78942620e-01  -7.94315350e-01   7.51780100e-02
C     4.493680788343943e+00   8.187453426087768e-01   4.763100000000000e-03 -6.21804600e-02  -9.51300750e-01  -4.21162170e-01
C     7.118301121421777e-01   5.906489339341384e-01   8.629679999999999e-02  2.88505770e-01   2.16551461e+00   2.21066900e-01
C     2.077366704748260e+00   2.127416661411910e-01   2.107980000000000e-01  8.01122560e-01   7.09349080e-01  -1.08499664e+00
C     3.036206129125895e-01   3.796202262476240e-01   3.543124500000000e+00 -4.47932900e-02  -1.14113593e+00   5.81270850e-01
C     7.158806341818211e+00   7.466712474936177e+00   3.390772800000000e+00 -9.19512910e-01   6.27721010e-01   8.32473320e-01
C     4.075948046687865e+00   2.051399175067621e-01   3.368644800000000e+00 -4.40951900e-01  -1.05803754e+00  -7.14396400e-02
C     9.507115733663461e+00   6.892547966359088e+00   3.297941400000000e+00  1.57614587e+00   2.82555000e-01   5.16491170e-01
C     1.089776567743369e+01   7.277604401536701e+00   3.455245200000000e+00 -5.31563230e-01  -6.07305710e-01  -3.04460330e-01
C     1.192294512662172e+01   6.272451540924575e+00   3.526196400000000e+00 -2.77425450e-01   8.02372140e-01   2.67253310e-01
C     4.391170868296603e+00   6.671586716601861e+00   3.654153900000000e+00 -4.22648600e-02   1.20171812e+00  -8.55917650e-01
C     5.396162876753289e+00   5.694115280011227e+00   3.626465700000000e+00  1.18323916e+00  -2.87422000e-02  -2.44197880e-01
C     6.778214208564018e+00   6.097609705971103e+00   3.478362900000000e+00  3.99721230e-01  -6.09010580e-01  -2.19816830e-01
C     7.811541264213187e+00   5.105787364374135e+00   3.363511200000000e+00  2.37989550e-01  -2.44471860e-01   2.31392350e-01
C     9.186064283392302e+00   5.520688223280870e+00   3.257277300000000e+00  2.52862100e-02  -1.10794545e+00   2.56738370e-01
C     1.024194085952408e+01   4.507063241794122e+00   3.300339000000000e+00 -1.23049068e+00   9.56396740e-01   7.61407410e-01
C     1.159624288693395e+01   4.901600253549486e+00   3.486467400000000e+00 -5.35724680e-01  -4.74032450e-01  -5.78376110e-01
C     3.710848660643466e+00   3.890265348580464e+00   3.558628200000000e+00 -1.81318070e-01   1.00758287e+00   4.11908360e-01
C     5.064032395243263e+00   4.308481211202520e+00   3.624967500000000e+00  5.33037810e-01   1.29508370e-01   1.25024920e-01
C     6.100573104089126e+00   3.343333069437517e+00   3.627588000000000e+00  1.23932510e+00  -1.33227250e-01  -8.62507220e-01
C     7.500976614337208e+00   3.705099350229954e+00   3.470095500000000e+00 -1.54513475e+00   1.35540730e+00   3.57167100e-02
C     8.510072199764092e+00   2.732133175253679e+00   3.405971100000000e+00 -1.26662820e-01   3.65958500e-02   6.85130990e-01
C     9.864522340437706e+00   3.144701470423322e+00   3.398458800000000e+00  6.83116510e-01  -7.67462190e-01  -7.33396060e-01
C     1.990588515888486e+00   2.126637113300072e+00   3.410527200000000e+00  5.25196500e-01   8.98476900e-01   1.09016676e+00
C     3.353021085406174e+00   2.534109174264252e+00   3.559318200000000e+00  6.84137550e-01  -7.95639720e-01  -1.04299468e+00
C     4.425423687623057e+00   1.565931201153040e+00   3.499700100000000e+00 -1.41834578e+00   3.69444620e-01   1.08490260e-01
C     5.770743377319140e+00   1.975304873062232e+00   3.543626700000000e+00  3.97401140e-01  -1.07085343e+00   2.41626180e-01
C     6.786492371748129e+00   9.487874065556343e-01   3.527328300000000e+00  6.16045950e-01   1.06574567e+00  -3.57323500e-02
C     8.171765355658618e+00   1.359814154570470e+00   3.540501600000000e+00 -5.02854660e-01  -4.56404590e-01  -4.88299890e-01
C     1.677777770558641e+00   7.549113742959748e-01   3.497076300000000e+00 -3.05427740e-01  -2.50673800e-01  -6.85245350e-01
