32
Lattice="9.86 0 0 4.93 8.53901048131456 0 0 0 30 " PBC="1 1 1" Properties=species:S:1:pos:R:3:force:R:3 Energy="-252.7337345"
C     9.802483612699998e+00   4.389195695997112e-01   4.397173500000000e+00 -2.94061440e-01  -2.86142016e+00   1.13654649e+00
C     1.135948168500000e+00   1.195304947137902e+00   4.521122700000000e+00 -1.11783548e+00  -1.88696548e+00  -4.01790620e-01
C     2.336868166100000e+00   4.813275404673736e-01   4.579713900000000e+00  1.28107251e+00   1.40676592e+00   1.05140140e-01
C     3.605043420900000e+00   1.137160263076438e+00   4.570199700000000e+00  2.14680043e+00  -7.00824573e+00  -1.27257084e+00
C     4.880738552600000e+00   2.508436796625760e-01   4.365878700000001e+00 -1.59203199e+00   3.17586937e+00   1.91943977e+00
C     6.054648016900000e+00   1.050095999881729e+00   4.462216500000000e+00 -1.29282450e-01  -7.76454100e-02   1.97795730e-01
C     7.323620551299999e+00   3.535311726018072e-01   4.540446300000000e+00 -4.08739690e-01  -8.36180650e-01   4.68207940e-01
C     8.582999897299999e+00   1.078548836702137e+00   4.611182100000000e+00 -2.27491650e+00  -2.13145088e+00  -1.64170649e+00
C     1.095999959450000e+01   2.580524916290121e+00   4.543478400000000e+00 -3.90800260e-01   6.48420000e-04  -3.34394590e-01
C     2.384315817200000e+00   3.181437029024655e+00   4.498299599999999e+00 -3.89743500e-01   3.11492319e+00  -1.28310780e-01
C     3.646068514500000e+00   2.431299047723946e+00   4.458080700000000e+00 -2.14591884e+00   7.65505318e+00  -4.47989800e-02
C     4.796036173300000e+00   3.304664940893316e+00   4.389911700000000e+00 -1.47453810e-01  -3.69931155e+00   7.36585080e-01
C     5.933851825800000e+00   2.518252901513149e+00   4.546201500000000e+00  4.88135104e+00   3.85353310e-01  -1.47150342e+00
C     7.247473496800000e+00   3.236862038248239e+00   4.499154000000000e+00 -1.28016572e+00  -5.37948580e-01   7.00748140e-01
C     8.506971458599999e+00   2.441042827192569e+00   4.516074300000000e+00 -2.52051012e+00   4.14784893e+00   5.31920140e-01
C     9.641097499099999e+00   3.207654779851922e+00   4.514524500000000e+00  4.76875255e+00   3.22866182e+00   7.03407200e-01
C     1.222427610670000e+01   4.700235727769182e+00   4.456468800000001e+00  4.05774244e+00  -4.75824512e+00   8.36078620e-01
C     3.683556924700000e+00   5.384465783630533e+00   4.578908400000000e+00 -5.80347300e+00   2.19374730e-01  -6.41965930e-01
C     4.805660913700000e+00   4.688739487179748e+00   4.434114300000000e+00  3.07829100e+00  -3.44105190e-01   3.40094800e-02
C     6.051221864100000e+00   5.426299079092892e+00   4.468963500000000e+00 -7.75553140e-01  -2.60273001e+00   2.91913590e-01
C     7.224226919900000e+00   4.718701508712391e+00   4.510539000000000e+00  4.01258098e+00  -3.60040885e+00  -1.53953700e-02
C     8.532573934600000e+00   5.376386257304462e+00   4.525806300000000e+00 -1.86015158e+00   2.09666647e+00   1.76762580e-01
C     9.783400223599999e+00   4.729723578049870e+00   4.608337800000000e+00 -3.62932995e+00  -5.35194411e+00  -1.68447197e+00
C     1.101645943350000e+01   5.294876193476469e+00   4.437761100000000e+00 -4.43776150e-01   3.33558678e+00   9.85553780e-01
C     1.349680016380000e+01   6.776388961399658e+00   4.633747500000000e+00 -1.14333860e+00   1.31217020e-01  -1.38600262e+00
C     4.818515297099999e+00   7.448083152145636e+00   4.357202400000000e+00  1.47724933e+00   3.86612499e+00   2.10556214e+00
C     6.046147612300000e+00   6.769659452630474e+00   4.532711700000000e+00  1.31149846e+00   5.34607336e+00  -7.49077990e-01
C     7.291398021999999e+00   7.679310931543450e+00   4.610966400000001e+00 -3.68160800e-02  -7.57522586e+00  -1.27578962e+00
C     8.531850752899999e+00   6.830082515468212e+00   4.467140400000000e+00 -2.30209296e+00  -1.11051187e+00   1.06506548e+00
C     9.799440865999999e+00   7.358318426886627e+00   4.445390700000000e+00 -1.06128844e+00   4.81849662e+00  -5.30383910e-01
C     1.100070147730000e+01   6.730006166543660e+00   4.478429400000000e+00  1.93100751e+00  -1.78519808e+00   1.09804400e-01
C     1.221865255430000e+01   7.412258758358053e+00   4.596972600000000e+00  8.00933450e-01   3.23887343e+00  -5.26377550e-01
