32
Lattice="9.86 0 0 4.93 8.53901048131456 0 0 0 30 " PBC="1 1 1" Properties=species:S:1:pos:R:3:force:R:3 Energy="-253.26585877"
C     9.822637058300000e+00   2.255336256493320e-01   4.088545800000000e+00 -2.61244339e+00  -2.88718448e+00  -3.29730760e-01
C     1.155692177600000e+00   8.541869340708703e-01   3.893668800000000e+00  1.87056193e+00   2.66424088e+00  -4.99697320e-01
C     2.337389415000000e+00   1.661553107438224e-01   4.138278600000000e+00  3.82359535e+00  -1.83695519e+00   1.12628466e+00
C     3.667799806600000e+00   8.053362797960479e-01   4.218593700000000e+00 -1.57199774e+00   3.26076901e+00  -1.51807580e+00
C     4.943218315999999e+00   2.011406613616400e-01   4.378932000000000e+00 -2.38094494e+00  -1.15402758e+00  -5.13885080e-01
C     6.130938287900000e+00   9.079580223545832e-01   4.171830900000000e+00  1.06496779e+00  -1.63652269e+00   6.06431900e-01
C     7.340211332399999e+00   7.271496842369760e-02   4.038351000000000e+00  2.61534394e+00   3.58004487e+00   4.77331740e-01
C     8.601579686899999e+00   8.972813559910200e-01   3.979492800000000e+00 -2.10460914e+00  -9.37179800e-02  -9.01911990e-01
C     1.107110384930000e+01   2.293147251069074e+00   3.554022600000000e+00 -1.25914374e+00  -1.03652903e+00   6.61603620e-01
C     2.408547950400000e+00   3.007324214414520e+00   3.620213100000000e+00  2.06945785e+00  -2.45908433e+00   5.81386230e-01
C     3.703349494300000e+00   2.268479757594450e+00   3.909025500000000e+00 -3.35140528e+00  -1.68963916e+00   3.11092870e-01
C     4.864783445700000e+00   2.967965780359580e+00   4.084842600000000e+00  1.51062841e+00   1.39097719e+00   1.22247086e+00
C     6.098697912000000e+00   2.318435445215489e+00   4.267707300000000e+00  2.34002489e+00  -7.96119200e-01  -1.76243017e+00
C     7.386616288499999e+00   3.037314329291643e+00   4.102457100000001e+00 -1.51490745e+00  -3.08094182e+00   2.57704240e-01
C     8.566915476500000e+00   2.337727033862220e+00   3.769844400000000e+00  1.26808225e+00  -1.25384739e+00   6.67679930e-01
C     9.842748500300001e+00   3.043961607389903e+00   3.543900900000000e+00 -1.54349240e+00  -8.13867750e-01   1.93511207e+00
C     1.227761826300000e+01   4.376993962361820e+00   3.677419800000000e+00  5.60432690e-01   4.71758557e+00   1.26872539e+00
C     3.675996227400000e+00   5.050342586388299e+00   4.051217700000000e+00 -1.29786178e+00   5.29204670e-01  -6.13934410e-01
C     4.863619669900000e+00   4.404260645236453e+00   4.243616700000000e+00  1.62424699e+00  -1.86464611e+00  -1.20270080e-01
C     6.083712733299999e+00   5.075251648469401e+00   4.509446700000000e+00  1.14754770e+00   1.83293754e+00  -4.54981300e-01
C     7.400026233600000e+00   4.355223242802432e+00   4.388043000000001e+00 -3.42890753e+00   3.69275317e+00  -3.95967180e-01
C     8.532992590199999e+00   5.121529413496495e+00   4.221285000000000e+00  3.84532395e+00   6.21833930e-01  -5.74632900e-02
C     9.803544154299999e+00   4.419523272568404e+00   3.878017500000000e+00  1.11403372e+00   3.10076857e+00  -9.52508360e-01
C     1.108700857160000e+01   5.268205704313552e+00   3.780936900000000e+00 -2.78548708e+00  -4.33450321e+00   5.58812990e-01
C     3.743818434600000e+00   6.441700908614171e+00   4.161031500000000e+00 -3.72102397e+00   3.10577355e+00  -9.36243440e-01
C     4.830922480200000e+00   7.300929957593271e+00   4.269685200000001e+00  3.57877165e+00  -7.63429760e-01   7.85234810e-01
C     6.091463975100000e+00   6.585794917271970e+00   4.505429400000000e+00 -1.05298520e+00  -2.36951832e+00  -9.19292260e-01
C     7.314142872800000e+00   7.251716053812630e+00   4.407032399999999e+00  6.58153520e-01   1.78253991e+00  -1.49110770e-01
C     8.580594254499999e+00   6.560941444149092e+00   4.379162100000000e+00  9.07388300e-02   2.61573490e-01   2.28400760e-01
C     9.849138371900001e+00   7.316385310391758e+00   4.397766000000000e+00 -1.87340446e+00  -5.02501500e-01  -1.06985755e+00
C     1.101584234540000e+01   6.665074933123007e+00   4.063621200000000e+00  3.55585569e+00  -3.56091477e+00  -3.01418220e-01
C     1.236458691400000e+01   7.204734759712089e+00   4.020976500000000e+00 -2.23915305e+00   1.59294790e+00   8.08505930e-01
