32
Lattice="9.86 0 0 4.93 8.53901048131456 0 0 0 30 " PBC="1 1 1" Properties=species:S:1:pos:R:3:force:R:3 Energy="-251.37058427"
C     9.828379423700000e+00   2.659564473606040e-01   4.462799100000000e+00 -1.32362127e+00   2.59892600e-02   2.05686660e-01
C     1.205945541000000e+00   9.252899080961535e-01   4.588851900000000e+00 -1.28028388e+00   2.28367340e+00   8.55588260e-01
C     2.385395388600000e+00   2.567861478358176e-01   4.165657800000000e+00  1.17739865e+00   1.09428699e+00   1.26334970e-01
C     3.652657607400000e+00   9.580385503088400e-01   4.278031800000000e+00  4.52600780e-01  -2.10155989e+00  -3.14780720e-01
C     4.889443798699999e+00   1.995451472534520e-01   4.047259800000001e+00 -6.25975700e-01   1.60260320e-01   4.80092990e-01
C     6.100455210500000e+00   9.297934676134104e-01   4.143251999999999e+00 -3.78779910e-01   8.91421800e-02   6.99865430e-01
C     7.328977982300000e+00   2.896943841543752e-01   4.267032300000000e+00  1.14192658e+00   1.45361599e+00   1.96365010e+00
C     8.543394002799999e+00   1.023247216179989e+00   4.756471500000000e+00 -1.66851300e-02  -1.97186826e+00  -3.99945339e+00
C     1.102092399220000e+01   2.426405255427754e+00   5.079198300000000e+00 -1.16821702e+00  -2.93095485e+00  -2.23118248e+00
C     2.407444665700000e+00   3.043467369463321e+00   4.929608099999999e+00  2.35568987e+00   1.25560266e+00  -1.50066605e+00
C     3.694415348300000e+00   2.328311750126762e+00   4.568452200000000e+00 -2.28536746e+00   2.42914250e-01  -3.15879450e-01
C     4.878703004900000e+00   2.996204117236731e+00   4.209652200000000e+00 -9.77306520e-01   4.25110886e+00   1.38506765e+00
C     6.091011450400000e+00   2.311499719343215e+00   4.276798800000001e+00  1.27817022e+00   3.05888498e+00  -1.98034828e+00
C     7.347432747100000e+00   3.152418311979737e+00   4.222256400000000e+00 -1.79803153e+00  -3.84638678e+00   9.10582940e-01
C     8.516604037699999e+00   2.461933943282413e+00   4.625417100000000e+00  2.82374580e-01  -1.62354582e+00   1.10698467e+00
C     9.685851644699998e+00   3.148730825694054e+00   4.977084300000000e+00  2.76888893e+00   1.08139280e-01  -8.54598800e-02
C     1.229896003580000e+01   4.466605583162923e+00   4.684804800000000e+00  8.31424670e-01   8.54196240e-01   1.50112965e+00
C     3.710290835700000e+00   5.336235061516559e+00   4.440385200000001e+00 -3.25301781e+00  -2.73283523e+00  -1.03460984e+00
C     4.831168191400000e+00   4.559742449050589e+00   4.092118200000000e+00  2.70031631e+00  -1.41283035e+00   1.57315860e-01
C     6.111879893899999e+00   5.238011848646376e+00   3.752053200000000e+00 -1.68366820e+00  -9.71504250e-01   6.98793100e-01
C     7.350414115300000e+00   4.482150424791238e+00   3.919028700000000e+00 -1.05222929e+00   2.17997007e+00   4.18258740e-01
C     8.520039064500001e+00   5.229382495435498e+00   4.142643900000000e+00  2.19927955e+00   3.87067860e-01   9.04714540e-01
C     9.714324958299999e+00   4.575699041764250e+00   4.861919100000000e+00 -1.62356910e-01  -7.46189710e-01  -2.80330454e+00
C     1.104661718020000e+01   5.104312889786510e+00   4.743005100000000e+00 -5.17828170e-01   4.44007424e+00  -2.06783230e+00
C     1.345814270270000e+01   6.755248335423588e+00   4.274925900000000e+00  1.26929183e+00  -1.34246306e+00   1.47970230e-01
C     4.858260661299999e+00   7.384147652737055e+00   4.026800400000000e+00 -1.56523930e-01   1.55055478e+00   1.16126020e+00
C     6.076723521600000e+00   6.660029914951213e+00   3.704122800000000e+00  6.70533580e-01   1.83288741e+00   6.00463680e-01
C     7.332991840399999e+00   7.475763464687919e+00   3.671735400000000e+00 -4.51501510e-01  -3.75677072e+00   1.32889963e+00
C     8.570919523900001e+00   6.622306530622984e+00   3.807065400000000e+00 -2.03562160e-01   1.21801946e+00   1.10517900e+00
C     9.836959792900000e+00   7.279317807458496e+00   4.032982800000000e+00 -8.60160730e-01   3.64072960e-01  -4.22076380e-01
C     1.105613627070000e+01   6.552820162061774e+00   4.254273000000000e+00 -5.90758030e-01   1.44954625e+00   1.62684795e+00
C     1.219969300680000e+01   7.466327516547100e+00   4.338342300000000e+00  1.65797960e+00  -4.86309850e+00  -6.29092940e-01
