32
Lattice="9.86 0 0 4.93 8.53901048131456 0 0 0 30 " PBC="1 1 1" Properties=species:S:1:pos:R:3:force:R:3 Energy="-252.63488321"
C     4.913577479800000e+00   7.387448578018309e+00  -4.888605000000013e-01  1.51957725e+00   3.07403323e+00   9.12291100e-01
C     6.154153953700000e+00   8.190781008225015e+00  -3.999501000000016e-01  6.60569500e-02   3.86088810e-01  -7.20980070e-01
C     7.470079906700000e+00   7.532027773251581e+00  -4.504401000000016e-01 -5.59804786e+00  -3.15403227e+00   9.49459580e-01
C     8.593115271299999e+00   8.191010536826717e+00  -2.762304000000029e-01  6.89622904e+00   2.01472233e+00  -2.86123003e+00
C     9.930101494100001e+00   7.449782756791575e+00  -4.504695000000005e-01 -2.56485579e+00  -7.72769020e-01   2.12291783e+00
C     1.118454423390000e+01   8.183726590107067e+00  -4.448856000000028e-01 -2.94767404e+00  -1.40141138e+00   5.44431450e-01
C     1.235365237120000e+01   7.443398053265574e+00  -2.940531000000028e-01  7.93117210e-01  -2.37783691e+00  -1.57369912e+00
C     1.353542567850000e+01   8.142870328223831e+00  -5.254383000000011e-01  1.30336028e+00  -6.70949610e-01   1.13653837e+00
C     1.186699560500000e+00   1.118976269479068e+00  -2.774846999999987e-01  8.39329740e-01  -3.62650823e+00   1.22090564e+00
C     2.514531463500000e+00   1.782989705688391e+00  -1.181261999999990e-01 -3.34229025e+00  -2.87939485e+00  -1.92158958e+00
C     3.705733198600000e+00   1.105306423771951e+00  -4.734152999999992e-01 -1.02570979e+00  -2.01443660e+00   2.52888898e+00
C     4.899964566600000e+00   1.810186881017715e+00  -5.158541999999997e-01  3.90952585e+00  -5.32865958e+00   2.69392390e-01
C     6.242607471399999e+00   1.064316953325225e+00  -4.721055000000014e-01 -7.49887209e+00  -2.15965015e+00  -8.01569630e-01
C     7.340370472800000e+00   1.733226316583361e+00  -4.102257000000016e-01  4.58293834e+00   3.71422625e+00  -4.14976720e-01
C     8.544347711299999e+00   1.023244398306530e+00  -4.783188000000003e-01  2.29785920e+00  -7.39767700e-02   1.48727639e+00
C     9.744142584299999e+00   1.723080178940921e+00  -1.418591999999990e-01  3.21969623e+00  -1.73563650e-01  -2.19004860e+00
C     2.498632164200000e+00   3.135231418636117e+00  -6.831719999999919e-02 -2.73902774e+00   9.86076130e-01  -4.27636430e-01
C     3.702044326100000e+00   3.683394135690869e+00  -2.318579999999990e-01  2.77549925e+00   7.98259578e+00   2.55137350e-01
C     4.952989526700000e+00   3.120815946533886e+00  -3.550136999999971e-01  1.20532375e+00   2.96475398e+00  -7.65320810e-01
C     6.196662681499999e+00   3.913632329164158e+00  -4.684818000000028e-01 -7.52338740e-01  -1.14782072e+00   1.68476814e+00
C     7.409161572900000e+00   3.190697329719900e+00  -3.986814000000010e-01 -7.01567900e-02  -1.12326040e+00  -8.15540400e-02
C     8.659150994399999e+00   3.846781355407390e+00  -2.935347000000021e-01 -1.08769934e+00   1.20156150e-01  -3.75353080e-01
C     9.919865285799998e+00   3.111302037227384e+00  -2.035599000000019e-01 -2.78974551e+00   2.96306671e+00   5.95209170e-01
C     1.111693273490000e+01   3.881382365163503e+00  -1.607196000000002e-01  4.50327670e-01  -8.76091450e-01   1.88757400e-01
C     3.779550976000000e+00   5.177888761246802e+00  -2.599620000000016e-01 -1.78567845e+00   1.65171609e+00   3.26395740e-01
C     5.003812699500000e+00   6.007099004273567e+00  -2.729654999999980e-01 -3.96672312e+00  -1.50963004e+00  -8.72024890e-01
C     6.177268209399999e+00   5.313241982606958e+00  -3.053396999999975e-01  2.69336920e+00   8.41691960e-01  -1.30482249e+00
C     7.420996136499999e+00   6.077677341494959e+00  -4.326267000000001e-01 -1.69192933e+00  -1.15959503e+00   6.54757710e-01
C     8.531450042499999e+00   5.258937376948455e+00  -3.483099000000003e-01  5.02794422e+00   1.30018203e+00   4.21790240e-01
C     9.842209454099999e+00   5.947102550399411e+00  -2.573979000000008e-01  3.00055260e-01   3.68404123e+00  -1.86015989e+00
C     1.111216719970000e+01   5.322224936241813e+00  -2.824580999999995e-01 -1.39364410e-01  -2.57795235e+00   9.92688070e-01
C     1.238960089590000e+01   5.950252762145692e+00  -2.565984000000014e-01  1.19903810e-01   1.34418831e+00  -1.20640190e-01
