72
Lattice="7.395 0 0 3.6975 6.40425786098592 0 0 0 13.6 " PBC="1 1 1" Properties=species:S:1:pos:R:3:force:R:3 Energy="-582.42860393"
C     3.686657155200000e+00   6.311496539793246e+00   1.353501620800000e+01 -1.84539460e-01  -1.06503218e+00  -3.08791590e-01
C     1.227353178600000e+00   5.920896498016501e-01   1.354692545600000e+01 -1.16370710e-01  -8.54595000e-02  -4.02645600e-02
C     1.288208889075000e+00   8.777841693194576e-01   3.492527872000000e+00  7.68550770e-01  -1.31907101e+00  -1.98260800e-01
C     2.540898742725000e+00   1.550373675314264e+00   3.538460648000000e+00 -9.69394130e-01   1.62555693e+00  -5.87493490e-01
C     6.161405626275000e+00   6.281638288585460e+00   1.352435911200000e+01 -5.96737080e-01   1.07582038e+00  -7.27707000e-02
C     3.686663367000000e+00   6.062114226384216e-01   1.350846193600000e+01 -2.60204500e-01  -3.03886160e-01  -2.52132900e-02
C     3.751822967475000e+00   8.399799632570347e-01   3.493933840000000e+00  6.48100340e-01   1.62629557e+00   2.10212880e-01
C     4.981912739775000e+00   1.550661226492178e+00   3.498835824000000e+00  7.34235590e-01   2.89052450e-01  -5.34575120e-01
C     8.594490334574999e+00   6.273250503981060e+00   1.351749451200000e+01  3.76169500e-02   9.13223760e-01  -3.35879620e-01
C     6.127758339300000e+00   5.502182276574984e-01   1.352473460800000e+01  7.19955350e-01   2.21765707e+00   2.16364530e-01
C     6.249291429824999e+00   8.301454568020614e-01   3.443205160000000e+00 -1.55464557e+00   1.00147826e+00   2.61858810e-01
C     7.454037982500000e+00   1.561663677453079e+00   3.455860504000000e+00  7.52802020e-01   2.58146870e-01   8.71901700e-02
C     1.228845452625000e+00   1.987259594178058e+00   1.356278849600000e+01 -1.03024490e+00   2.51708631e+00  -1.69643120e-01
C     2.453847723750000e+00   2.733943225526713e+00   1.356982228000000e+01 -3.34391500e-01   7.98406800e-02  -5.15444500e-01
C     2.534120892450000e+00   2.997253775099985e+00   3.492103008000000e+00 -8.47407000e-03  -8.01617600e-02   3.18539530e-01
C     3.765367723425000e+00   3.730346802758777e+00   3.520592151999999e+00 -4.62165890e-01  -1.38346821e+00  -7.61743240e-01
C     3.689897237475000e+00   2.026536651463124e+00   1.349611272800000e+01 -1.11251482e+00  -3.88358160e-01   9.24559000e-01
C     4.893876706800000e+00   2.717448290897340e+00   1.358353448000000e+01  1.11415370e+00   5.35510900e-01  -5.70763660e-01
C     4.974794719500000e+00   2.995585722097769e+00   3.469005312000000e+00  6.27868610e-01  -1.55437774e+00   7.09531890e-01
C     6.227313452849999e+00   3.629909275038446e+00   3.500926960000000e+00  6.05026890e-01   3.48846380e+00  -4.37385400e-01
C     6.124667746949999e+00   1.997103002551457e+00   1.355947009600000e+01  7.44615830e-01   5.17637070e-01  -1.01022120e-01
C     7.358022448724999e+00   2.762323758275882e+00   1.353100325600000e+01  7.67541850e-01  -1.88886657e+00   5.43397370e-01
C     7.488039489975000e+00   2.981223085122882e+00   3.473562672000000e+00 -1.84604866e+00  -6.13033790e-01  -2.39797100e-02
C     8.679080297549998e+00   3.714867391298263e+00   3.462513624000000e+00  1.24109419e+00  -4.25666990e-01   4.63761200e-01
C     2.432067821850000e+00   4.165832302556325e+00   1.354063355200000e+01  1.23591790e-01   1.84704110e-01  -4.31921390e-01
C     3.678193836525000e+00   4.893816269464723e+00   1.350101675200000e+01 -7.30729900e-02  -1.46549473e+00   6.35159320e-01
C     3.773309805525000e+00   5.124380055407613e+00   3.441286879999999e+00  2.92460560e-01   5.10133100e-01   3.46301510e-01
C     4.999340129549999e+00   5.847205776865253e+00   3.453897752000000e+00  6.46260890e-01  -3.01473470e-01   1.61566490e-01
C     4.905410614350000e+00   4.136505156452870e+00   1.356382712800000e+01  1.00499590e-01   1.40380283e+00  -3.37548470e-01
C     6.143872968675000e+00   4.888623569106677e+00   1.351858890400000e+01 -4.55584130e-01  -1.42465574e+00   5.17606520e-01
C     6.249294239925000e+00   5.124424629042319e+00   3.483381600000000e+00 -1.10807264e+00  -8.80012070e-01  -6.13603800e-02
C     7.458412088025000e+00   5.873769421659540e+00   3.476343872000000e+00  2.81087920e-01  -3.08469328e+00   3.41481170e-01
C     7.381613940749999e+00   4.196697239057123e+00   1.354941208000000e+01 -1.61597303e+00  -1.93183324e+00  -6.15545970e-01
C     8.569790295075000e+00   4.884366274651664e+00   1.347442630400000e+01  2.31190938e+00  -8.53561710e-01   8.79827940e-01
C     8.687148464400000e+00   5.125967222633057e+00   3.513807112000000e+00  4.13779990e-01   7.63528700e-01  -7.72823990e-01
C     9.947132598149999e+00   5.819385808806571e+00   3.450328703999999e+00 -1.08285917e+00   1.34165980e-01   2.26674190e-01
C     7.434593347649999e+00   9.476700568335000e-02   6.945791048000000e+00  1.76979630e-01   2.42696730e-01  -9.50582000e-02
C     1.281873555600000e+00   8.098117459688257e-01   6.930685800000000e+00 -1.27400692e+00   5.16605480e-01  -2.97468300e-02
C     1.147423100925000e+00   5.751913109696754e-01   1.006036839200000e+01  3.83866750e-01   6.34142260e-01   4.37256860e-01
C     2.389929411000000e+00   1.287763943678612e+00   1.011329469600000e+01 -3.98058970e-01   1.94911080e-01   3.94809200e-02
C     2.487295086900000e+00   1.184717257263540e-01   6.859011215999999e+00  1.19049171e+00  -1.21537404e+00   1.73584600e-01
C     3.756802316775000e+00   7.941621093343938e-01   6.838114544000000e+00 -1.14830646e+00  -3.37220300e-02   1.82671630e-01
C     3.619546125150000e+00   5.877104182769820e-01   1.016793528000000e+01 -1.03186830e+00  -3.26364780e-01  -5.94640020e-01
C     4.814083880325000e+00   1.292229824812126e+00   1.008869583200000e+01  2.73851163e+00   6.93313020e-01   4.10725300e-01
C     4.982571042675000e+00   1.150604977772250e-01   6.881304064000000e+00  2.55363370e-01  -1.22130696e+00   2.07939380e-01
C     6.205765421174999e+00   8.426816634778543e-01   6.954539111999999e+00  2.37817800e-02  -1.92890392e+00  -5.99150980e-01
C     6.106457300624999e+00   5.753347663457394e-01   1.007118488000000e+01 -1.29275078e+00   9.04714730e-01   4.98425000e-03
C     7.323344705475000e+00   1.323693559422835e+00   1.004978936000000e+01 -2.82349630e-01  -1.09743549e+00  -1.80340430e-01
C     8.653466162099999e+00   2.242016296740621e+00   6.967377240000000e+00  4.43010940e-01  -6.95212820e-01  -8.30922850e-01
C     2.493539055150000e+00   2.929068666345822e+00   6.882923144000000e+00  2.47894000e-01  -5.24782190e-01   5.78698500e-01
C     2.394657330300000e+00   2.709503296681381e+00   1.009504608000000e+01 -4.86953090e-01   1.28548060e-01   1.23959510e-01
C     3.608231775150000e+00   3.438537113580769e+00   1.007013781600000e+01  7.54507860e-01   5.26812000e-03   1.15602650e-01
C     3.724384300650000e+00   2.188496554230386e+00   6.863384023999999e+00  8.47254790e-01   2.41390332e+00  -4.75994000e-02
C     4.963966221000000e+00   2.961411705560709e+00   6.885918408000000e+00 -4.63914560e-01  -1.81757162e+00  -3.04753700e-02
C     4.851178124700000e+00   2.742804669042438e+00   1.008035141600000e+01 -4.00791290e-01  -1.19079880e+00  -2.36580250e-01
C     6.101719324125000e+00   3.442792678886161e+00   1.004384602400000e+01 -1.08079426e+00  -1.36168917e+00  -4.77016300e-02
C     6.198745384650000e+00   2.230568813901028e+00   6.903124992000000e+00  1.72521000e-02   1.39505248e+00   1.68884220e-01
C     7.438699273500000e+00   2.936704847247772e+00   6.920330760000000e+00 -9.54831820e-01   1.33622718e+00   1.40600600e-02
C     7.318618339124999e+00   2.744426163090012e+00   1.000727127200000e+01  4.99009850e-01  -9.68901180e-01   9.17879210e-01
C     8.549862988575001e+00   3.420537754737504e+00   1.010660499200000e+01  1.19785500e-02   1.18869367e+00  -5.09175350e-01
C     9.882729173400000e+00   4.331776998606657e+00   6.941120128000000e+00  8.48476750e-01   1.50042260e+00  -6.29135180e-01
C     3.749542423425000e+00   5.072686294898423e+00   6.915954552000001e+00 -1.81137872e+00   1.77467200e-02   2.17060030e-01
C     3.615103467975000e+00   4.869954004678363e+00   1.003038352000000e+01  3.78467780e-01  -1.30770667e+00   5.25913260e-01
C     4.837866828899999e+00   5.558699724104327e+00   1.007474576800000e+01  7.27284720e-01  -1.11437620e-01  -3.25341130e-01
C     4.960185120524999e+00   4.365272484023452e+00   6.914139768000000e+00  2.97383560e-01   3.30816770e-01  -3.09039950e-01
C     6.181495622775000e+00   5.091812226741840e+00   6.887842672000000e+00  4.26558300e-02   3.06707030e-01  -1.89919440e-01
C     6.077378163974999e+00   4.813085988073764e+00   1.006155540000000e+01 -9.02846100e-02   3.10368761e+00   5.34012790e-01
C     7.293935456024999e+00   5.573490805930048e+00   1.013974805600000e+01  5.02031650e-01  -9.00862290e-01  -2.02064970e-01
C     7.406140382624999e+00   4.394653810148403e+00   6.883034936000000e+00  9.25146600e-01  -1.34344442e+00   1.27813370e-01
C     8.658848908650000e+00   5.071112832784799e+00   6.903975400000000e+00  1.89877680e-01   6.26269410e-01  -1.80558500e-02
C     8.523818094374999e+00   4.866336495583564e+00   1.011931133600000e+01  1.35472541e+00  -5.63995880e-01  -5.84858200e-02
C     9.809741188949999e+00   5.556109329885114e+00   1.007295668800000e+01 -2.25175145e+00   1.02510686e+00   1.95646590e-01
