72
Lattice="7.395 0 0 3.6975 6.40425786098592 0 0 0 13.6 " PBC="1 1 1" Properties=species:S:1:pos:R:3:force:R:3 Energy="-574.92193164"
C     3.746865433425000e+00   6.250731340153100e+00   1.317573276800000e+01 -1.68545559e+00   3.65908319e+00   1.12844928e+00
C     1.239120879075000e+00   6.401928631416318e-01   1.328248433600000e+01 -1.27352877e+00  -8.47141860e-01  -6.11264130e-01
C     1.330180320825000e+00   9.001261913750107e-01   3.853473232000000e+00  3.23608290e-01   2.99604700e-02  -1.00124950e+00
C     2.591168621625000e+00   1.609447062155533e+00   3.820867232000000e+00 -2.67795671e+00   2.13080937e+00  -2.01680730e-01
C     6.103699520249999e+00   6.336063144859048e+00   1.323914317600000e+01  3.48699439e+00  -2.09886714e+00  -7.87480900e-02
C     3.709123387050000e+00   6.541150152609072e-01   1.327164676800000e+01 -4.62732650e-01  -2.41874978e+00   2.34871390e-01
C     3.743983417050000e+00   8.569852531952713e-01   3.698332048000000e+00  2.03807806e+00   2.93317433e+00  -4.86188370e-01
C     4.972399257150000e+00   1.562365327944221e+00   3.555550952000000e+00  2.02027912e+00   1.84512583e+00   2.00552521e+00
C     8.639749176599999e+00   6.265361290851063e+00   1.327992400000000e+01 -1.66334897e+00   4.19193210e-01   2.21730950e-01
C     6.179988780600000e+00   5.703232424425536e-01   1.319224004000000e+01 -5.32915670e-01  -8.98391900e-02  -4.54000890e-01
C     6.275850054675000e+00   9.189818635367371e-01   3.678238456000000e+00 -1.42966905e+00  -2.42406263e+00  -2.52965630e-01
C     7.495866801675000e+00   1.607480698822198e+00   3.812633792000000e+00  1.18159450e-01   8.20771510e-01  -5.57915570e-01
C     1.222114930350000e+00   2.056670157673731e+00   1.329821436800000e+01 -1.74582053e+00  -3.58292470e-01  -6.87636790e-01
C     2.403358841925000e+00   2.750668137055839e+00   1.345854667200000e+01  3.24359499e+00   2.67358810e-01  -7.27016170e-01
C     2.560144082325000e+00   3.109673028850588e+00   3.776610520000000e+00  5.11070420e-01  -3.37475635e+00  -5.35989030e-01
C     3.850754793449999e+00   3.747344151417267e+00   3.600094896000000e+00 -3.69526841e+00   6.27764550e-01   1.31529120e+00
C     3.716278345350000e+00   2.052368801924641e+00   1.333517998400000e+01 -2.03730150e+00  -2.94706510e-01  -4.40655100e-02
C     4.913040331650000e+00   2.737157906802119e+00   1.308541068000000e+01  1.04744360e-01  -1.20145097e+00   3.76379080e-01
C     4.997454145724999e+00   3.042445740901968e+00   3.721010728000000e+00  1.82140795e+00  -3.38355640e+00  -1.56345476e+00
C     6.241709373299999e+00   3.727196100019392e+00   3.737405936000000e+00  9.22085900e-01  -8.69889130e-01  -2.08517950e-01
C     6.120357830024999e+00   1.990113331480474e+00   1.295836641600000e+01  1.54078987e+00   4.20083870e-01   1.27173331e+00
C     7.389718786800000e+00   2.750074654479953e+00   1.294986818400000e+01 -4.23661480e-01  -3.70878716e+00   1.43503147e+00
C     7.499675115750000e+00   3.042365879806454e+00   3.782124504000000e+00 -2.44726434e+00  -2.19028140e+00   2.81733110e-01
C     8.658499236075000e+00   3.735065588035182e+00   3.799798384000000e+00  3.53658616e+00   2.08659855e+00  -5.45546070e-01
C     2.429318619675000e+00   4.162927523318765e+00   1.344488778400000e+01 -3.02110760e-01   5.49312610e-01  -2.79425080e-01
C     3.700165934475000e+00   4.903961510511063e+00   1.330624013600000e+01 -1.13981192e+00  -3.49096865e+00  -3.58047370e-01
C     3.849202767825000e+00   5.151932453572906e+00   3.649036536000000e+00 -1.95911219e+00   5.67648240e-01  -2.87823530e-01
C     5.000920404075000e+00   5.892006058256519e+00   3.652644344000000e+00  3.60928689e+00  -6.89298060e-01   8.06418810e-01
C     4.878247522200000e+00   4.133073114665695e+00   1.305640392000000e+01  1.05018205e+00   1.72029010e+00   1.30003586e+00
C     6.093467835225000e+00   4.845134431427090e+00   1.304753495200000e+01  1.78590738e+00   1.42218959e+00  -2.36213060e-01
C     6.290376422925000e+00   5.098314725917414e+00   3.681835384000000e+00 -1.97451870e+00   4.14646958e+00   2.58893210e-01
C     7.488561244200000e+00   5.911874307628490e+00   3.727901304000000e+00 -8.71582440e-01  -4.49959971e+00  -3.37252140e-01
C     7.403464243049999e+00   4.098685836341897e+00   1.295064746400000e+01 -2.87798625e+00   3.66560313e+00   2.21899066e+00
C     8.535961867574999e+00   4.801236574010877e+00   1.337918428000000e+01  3.00905622e+00   2.33106700e+00  -1.56254164e+00
C     8.681140655475000e+00   5.168413426920144e+00   3.729908800000000e+00  2.49507278e+00   4.88268780e-01   8.45532500e-02
C     1.000517939182500e+01   5.833512000581265e+00   3.709210824000000e+00 -2.37504044e+00   1.72672636e+00  -5.01486490e-01
C     7.389096423600000e+00   1.160402851872264e-01   6.517180927999999e+00  4.27089780e+00  -1.25840342e+00   2.46837399e+00
C     1.279775742000000e+00   8.592027915218748e-01   6.858193311999999e+00 -7.08839240e-01  -3.05605770e+00  -5.03538450e-01
C     1.088518598175000e+00   5.463282173907559e-01   1.022507146400000e+01  3.07120591e+00  -1.58724163e+00  -1.29864038e+00
C     2.372890036875000e+00   1.206380620113669e+00   1.009258026400000e+01 -1.53494870e+00   1.69705424e+00   1.30479610e+00
C     2.524568364225000e+00   1.270756540335282e-01   7.094129103999999e+00 -2.73612465e+00  -1.49032106e+00  -1.12358287e+00
C     3.750827008875000e+00   7.632282630190219e-01   7.199659935999999e+00  1.46863679e+00   1.94322161e+00  -8.78616240e-01
C     3.579672026324999e+00   4.924894147539366e-01   9.888094199999999e+00 -5.34161850e-01   3.71707873e+00   1.37923228e+00
C     4.807347626925000e+00   1.227242490092619e+00   1.005013847200000e+01  8.51392730e-01   8.41726910e-01   4.53940520e-01
C     5.030467052624999e+00   7.901682220051622e-02   6.965012608000000e+00 -6.70349080e-01   1.44505763e+00  -7.44898150e-01
C     6.256762265550000e+00   8.541891542135952e-01   6.671267840000000e+00 -4.13868895e+00  -9.09151500e-01   1.67990081e+00
C     6.048368059650000e+00   5.856623366133540e-01   1.004979344000000e+01  1.19718750e+00  -1.93664950e+00   1.37932300e-01
C     7.315475907824999e+00   1.278382154211763e+00   1.022339703200000e+01 -2.94052786e+00  -4.28728790e-01  -9.51368500e-02
C     8.663453553300000e+00   2.216371726991823e+00   6.923143104000000e+00 -7.78865420e-01   3.47326415e+00   5.82538010e-01
C     2.507343560475000e+00   2.936904852220739e+00   7.158106903999999e+00 -1.47976554e+00  -1.43165400e-02  -1.82187898e+00
C     2.358284468175000e+00   2.684265717519586e+00   1.030359364800000e+01  8.93592850e-01  -2.35417223e+00  -1.06437076e+00
C     3.565065459300000e+00   3.407696385174682e+00   1.035636953600000e+01  1.62354897e+00  -2.21029854e+00  -6.59418510e-01
C     3.692806689300000e+00   2.225421711858946e+00   7.253943656000000e+00  3.61110757e+00   1.50890070e-01  -9.92670740e-01
C     5.017756933350000e+00   2.999427636387983e+00   7.117611951999999e+00 -4.19364384e+00  -2.32027447e+00  -4.63184800e-01
C     4.873776024524999e+00   2.637426768723747e+00   1.031704350400000e+01 -4.13485622e+00   2.09594520e-01  -1.13461688e+00
C     6.056843173350000e+00   3.323061683936795e+00   1.021326720800000e+01  6.22548730e-01   2.80022465e+00  -8.95640000e-02
C     6.169199031900000e+00   2.254286214374595e+00   6.868554744000000e+00  2.45495627e+00   1.77921435e+00  -1.28044200e-02
C     7.410790099800000e+00   3.028737747165530e+00   6.836132616000000e+00  6.17478890e-01  -2.63747050e+00   4.23747730e-01
C     7.278268667850000e+00   2.673929309376125e+00   1.028001111200000e+01  2.39412545e+00   3.62417890e-01  -1.56055240e+00
C     8.558128638900000e+00   3.382620129268380e+00   1.017719212000000e+01 -1.76650900e+00   1.25974776e+00  -1.24064020e-01
C     9.872511538874999e+00   4.340568827839444e+00   6.806722344000000e+00  2.00544962e+00  -7.91841470e-01   1.24113792e+00
C     3.714657989925000e+00   5.037044678630164e+00   6.708446432000000e+00 -1.82307421e+00   2.78492417e+00   7.51007300e-02
C     3.514822609125000e+00   4.786192716127423e+00   1.026158583200000e+01  3.74735254e+00   8.66382160e-01  -4.42885230e-01
C     4.783832414325000e+00   5.504720860348110e+00   1.017783417600000e+01  3.97811150e-01  -2.17279890e-01   2.04681010e-01
C     4.915685744999999e+00   4.409796741900951e+00   6.971127712000000e+00  1.13265516e+00  -1.71871348e+00   7.03407000e-03
C     6.115416010350000e+00   5.086663267464980e+00   7.026538192000000e+00  3.74834938e+00   2.28728929e+00  -4.21290280e-01
C     6.041594646375000e+00   4.781344564842246e+00   1.009061207200000e+01 -6.06441500e-01   1.03180344e+00  -3.62841320e-01
C     7.236001214250000e+00   5.565360792704513e+00   9.819827640000000e+00  2.28661807e+00  -5.92661043e+00   1.60533592e+00
C     7.416900588299999e+00   4.425615643070622e+00   6.958335416000001e+00 -8.73164070e-01  -7.27277200e-01   4.64759900e-02
C     8.701972333499999e+00   5.074877639810379e+00   6.889937480000000e+00 -2.05709032e+00   1.07813035e+00  -1.10593600e-02
C     8.606187412800001e+00   4.814659065931916e+00   9.936266487999999e+00 -5.26739242e+00  -1.08396245e+00   4.28844500e-01
C     9.765323676074999e+00   5.502403543684047e+00   1.001494384800000e+01 -1.31081370e-01   3.02585288e+00   3.54422850e-01
