72
Lattice="7.395 0 0 3.6975 6.40425786098592 0 0 0 13.6 " PBC="1 1 1" Properties=species:S:1:pos:R:3:force:R:3 Energy="-582.08395291"
C     3.702341580450000e+00   6.250337926592761e+00   5.103005600000000e-02  1.22271900e-01  -8.97294710e-01   2.80583950e-01
C     1.209006331500000e+00   5.869626571292484e-01   3.453774400000000e-02  8.10152570e-01  -1.51674804e+00  -2.43011500e-02
C     1.338238911150000e+00   9.096300459966721e-01   3.343974120000000e+00  2.74728910e-01  -4.98955500e-02  -8.90326400e-02
C     2.559112849575000e+00   1.654615780501484e+00   3.209103872000000e+00 -4.50258980e-01  -6.91327940e-01   5.83310930e-01
C     6.120744662474999e+00   6.247849424116100e+00   1.317909360000000e-01  1.65118112e+00   2.98219620e-01  -1.97131160e-01
C     3.693624391425000e+00   5.736112524704563e-01   9.454733600000000e-02 -9.22332500e-01  -5.34284910e-01  -3.82143300e-02
C     3.756282337350000e+00   8.881648949273100e-01   3.287293400000000e+00  4.25153230e-01   9.81985990e-01   3.02353040e-01
C     4.975016606475000e+00   1.593403627705289e+00   3.401138864000000e+00  1.68854796e+00   4.06088690e-01   1.10931810e-01
C     8.617055807324999e+00   6.248510343527252e+00   1.806946320000000e-01 -8.01440000e-03  -2.82078020e-01  -3.97995510e-01
C     6.191438828849999e+00   5.313090159000624e-01   1.578640400000000e-01 -2.24589371e+00   8.61769070e-01  -3.78676770e-01
C     6.244323468825000e+00   9.229454587262911e-01   3.519236232000000e+00  4.51208860e-01  -1.36162898e+00  -5.16846410e-01
C     7.511412755549999e+00   1.615419737078347e+00   3.399252272000000e+00 -1.70190628e+00  -6.25005850e-01   1.97649730e-01
C     1.218433625400000e+00   1.984540026077809e+00   1.356199398400000e+01  8.64548300e-02   4.80038280e-01   4.81073420e-01
C     2.456358141375000e+00   2.711235456304776e+00   1.350074488800000e+01 -7.89499120e-01  -1.31561040e-01   3.25234520e-01
C     2.565034543725000e+00   3.091930160534615e+00   3.231778608000000e+00 -8.40444030e-01  -7.18515150e-01   5.72769380e-01
C     3.808140255525000e+00   3.780821320656580e+00   3.400305864000000e+00 -4.18851750e-01  -1.67091057e+00  -2.97342620e-01
C     3.682896612825000e+00   2.005293728141504e+00   1.355964961600000e+01  1.41743230e-01  -1.06542200e+00   6.86248520e-01
C     4.913912387024999e+00   2.680170066532959e+00   1.253309360000000e-01  2.12424500e-02   4.98536800e-02  -3.35141650e-01
C     5.020970504550000e+00   3.013333329564558e+00   3.416805928000000e+00 -4.55769860e-01   7.24124210e-01  -9.19557000e-03
C     6.263365408949999e+00   3.716935326161257e+00   3.426763032000000e+00 -1.29973808e+00   6.73488670e-01  -1.86305090e-01
C     6.142468140525000e+00   1.976920560288874e+00   1.797615360000000e-01  4.01207260e-01  -1.40839857e+00  -2.19799800e-01
C     7.372865729700000e+00   2.658466100687998e+00   1.285083040000000e-01  3.38978670e-01   1.09421321e+00  -1.73195610e-01
C     7.456087100025000e+00   3.015417851455410e+00   3.331118448000000e+00  1.95090918e+00   7.88189270e-01   4.29740800e-02
C     8.676853773974999e+00   3.773895115780991e+00   3.267411560000000e+00  1.55192486e+00  -6.90260320e-01   6.91653450e-01
C     2.420934168675000e+00   4.132470538043648e+00   1.356092448000000e+01  1.20304138e+00  -5.07893040e-01   4.36707990e-01
C     3.700368927225000e+00   4.803675059233651e+00   7.925264000000000e-03 -1.01044039e+00   1.01423663e+00   3.59890480e-01
C     3.808733445450000e+00   5.164982986197434e+00   3.521036328000000e+00  2.20510080e-01   1.30989118e+00  -3.35821750e-01
C     5.043029604675000e+00   5.879586280988621e+00   3.441558200000000e+00  8.21981600e-02   2.87270480e-01  -4.43427100e-02
C     4.912794189074999e+00   4.088591252975229e+00   1.423865600000000e-01  3.72661430e-01   7.36470530e-01  -2.07448400e-01
C     6.148081167375000e+00   4.813814792618231e+00   2.508400320000000e-01 -4.92366500e-01   2.45675580e-01  -7.06373430e-01
C     6.268911843825000e+00   5.153903684142214e+00   3.390713240000000e+00 -1.72144240e-01   3.37050000e-02  -1.14194000e-02
C     7.491228435824999e+00   5.889204195442769e+00   3.339961440000000e+00 -5.44443050e-01  -6.22869690e-01   4.38900180e-01
C     7.378111372950000e+00   4.082016449728417e+00   2.161918560000000e-01 -7.45358200e-01   4.90766230e-01  -3.76297880e-01
C     8.577496217849999e+00   4.804169403897864e+00   1.408516640000000e-01  1.10435222e+00   1.18550100e+00  -3.18156620e-01
C     8.721599587875000e+00   5.181470940185741e+00   3.428504920000000e+00  8.36217200e-02   8.81401300e-02  -3.79063990e-01
C     9.974827538700000e+00   5.872811152555948e+00   3.550439936000000e+00 -9.08220580e-01   9.98229160e-01  -5.71794080e-01
C     7.437388398824999e+00   1.062862802535534e-01   6.834847415999999e+00 -9.45292710e-01   8.74679360e-01   7.65875600e-02
C     1.258779931950000e+00   8.359841546504447e-01   6.759676952000000e+00 -1.23555750e-01   5.96810440e-01  -2.90706400e-02
C     1.135066388700000e+00   5.573582066604552e-01   1.016751531200000e+01 -2.41791260e-01  -4.17401460e-01  -1.68494600e-01
C     2.375302396800000e+00   1.260790618509022e+00   9.966948903999999e+00 -8.97106120e-01  -1.94680460e-01   8.06293760e-01
C     2.492909925525000e+00   1.266593772726282e-01   6.790722352000000e+00  1.10626340e-01   1.96509330e-01   6.77306800e-02
C     3.768096145650000e+00   8.070896802080113e-01   6.773744248000000e+00 -9.07059880e-01   3.94256120e-01   9.52841700e-02
C     3.596666993475000e+00   5.504580671143554e-01   1.003352321600000e+01 -3.07587320e-01  -7.91142640e-01   3.00203620e-01
C     4.805195755875000e+00   1.238137285478894e+00   1.011147855200000e+01  1.52282389e+00   1.07587840e+00   4.01125260e-01
C     5.009611340849999e+00   1.221695442147180e-01   6.899663655999999e+00 -1.35130434e+00  -2.95429750e-01  -4.57414270e-01
C     6.199058451975000e+00   8.567034018068526e-01   6.883318087999999e+00  1.39307922e+00  -4.64183650e-01  -6.02964560e-01
C     6.074960405699999e+00   5.676180839224897e-01   1.026415528000000e+01 -7.23869480e-01   2.49050800e-01  -5.39718860e-01
C     7.299169008449999e+00   1.277028486227894e+00   1.026047471200000e+01  5.66496550e-01  -5.63552900e-02  -4.82613050e-01
C     8.621809609124998e+00   2.293746881732506e+00   6.691958472000000e+00  8.11369190e-01  -1.87121998e+00   8.58630400e-02
C     2.473063594275000e+00   2.945949201340946e+00   6.663670064000000e+00  1.11925413e+00  -3.26172110e-01   3.05663520e-01
C     2.370258082425000e+00   2.676890317997696e+00   9.949444344000000e+00 -3.65332680e-01   6.13773980e-01   7.63256910e-01
C     3.610052756925000e+00   3.385818607771400e+00   1.001797528800000e+01 -1.06512732e+00   6.00843620e-01   4.32287800e-01
C     3.744933415725000e+00   2.230163232250754e+00   6.684300992000000e+00 -9.83485940e-01   1.86943080e-01   3.92086600e-01
C     4.946338870425000e+00   2.970049320264227e+00   6.757618455999999e+00  6.31493710e-01  -1.45789920e-01   3.20010000e-04
C     4.817464060874999e+00   2.664421484114591e+00   1.011694439200000e+01  9.84626390e-01   6.15170520e-01  -1.54341600e-02
C     6.079299569849999e+00   3.396131192075622e+00   1.021815681600000e+01 -1.25948738e+00  -4.76616540e-01  -1.52556380e-01
C     6.207716370075000e+00   2.269768956049194e+00   6.774021824000000e+00 -1.05917217e+00   4.51501130e-01   2.33807090e-01
C     7.416660879375000e+00   3.007884010594063e+00   6.719843232000000e+00 -2.47732080e-01   4.87548900e-01   3.80417250e-01
C     7.310028528974999e+00   2.697542256403995e+00   1.020880776800000e+01 -3.33913890e-01  -9.74346000e-02  -6.26051900e-02
C     8.519377285950000e+00   3.407674098357329e+00   1.010860555200000e+01  1.23775742e+00   2.05487960e-01  -2.97995700e-02
C     9.878528702474998e+00   4.342354719186284e+00   6.765986263999999e+00 -4.08858540e-01   1.43241176e+00   1.84165120e-01
C     3.685363584825000e+00   5.092285373312538e+00   6.817946832000000e+00  1.11518377e+00  -2.10065950e-01  -3.48127900e-02
C     3.560664362024999e+00   4.829677498911665e+00   1.015483888800000e+01  1.57914806e+00  -9.28220910e-01  -4.93227200e-02
C     4.789700235900000e+00   5.519576625178217e+00   1.021048002400000e+01  1.55938784e+00   6.04001980e-01  -2.75576660e-01
C     4.924938147150000e+00   4.396426188511157e+00   6.817142391999999e+00  1.18593900e-02  -3.83381980e-01  -1.89645700e-01
C     6.141042162674999e+00   5.113563648137545e+00   6.855016896000000e+00  1.43977850e+00   4.06662500e-01  -4.51394860e-01
C     6.051804959850000e+00   4.804735796463003e+00   1.020879104000000e+01  7.14287500e-02   7.64101080e-01  -2.55336260e-01
C     7.304885972025000e+00   5.530857277100556e+00   1.015387777600000e+01 -1.31844098e+00   6.81704000e-02   1.21616310e-01
C     7.417503724500000e+00   4.452939537315469e+00   6.795971272000000e+00 -8.55465140e-01  -1.77713495e+00   1.02227850e-01
C     8.665498381725000e+00   5.095129504228163e+00   6.858766144000000e+00  1.97612240e-01   4.17423380e-01  -3.39644370e-01
C     8.526478001925000e+00   4.846859098068788e+00   1.017740931200000e+01  6.58185740e-01  -6.17436110e-01  -3.47190780e-01
C     9.779782490999999e+00   5.573881145446615e+00   1.019438728000000e+01 -1.67952577e+00  -1.22560942e+00   5.88565400e-02
