72
Lattice="7.395 0 0 3.6975 6.40425786098592 0 0 0 13.6 " PBC="1 1 1" Properties=species:S:1:pos:R:3:force:R:3 Energy="-571.929377"
C     1.098957993960000e+01   6.309477277289987e+00   1.345731084000000e+01  2.80299210e+00   3.89365950e-01  -1.33362291e+00
C     1.203050546400000e+00   6.230628182602824e-01   1.343081273600000e+01 -5.01244450e-01  -2.55865278e+00  -3.86809820e-01
C     1.309279906275000e+00   8.572982292768895e-01   3.759332672000000e+00 -1.40722254e+00  -7.23913000e-03  -4.60714090e-01
C     2.552582916675000e+00   1.532585208682328e+00   3.823868888000000e+00  5.66324860e-01  -9.46944940e-01  -9.26497660e-01
C     6.174839826974999e+00   6.247520501432411e+00   1.330231952800000e+01 -2.43952483e+00   2.39707140e+00   8.10960130e-01
C     3.667075306125000e+00   5.384559755440866e-01   1.349275216800000e+01  1.30781978e+00   1.81308189e+00  -1.70929753e+00
C     3.826382759175000e+00   8.750801635658083e-01   3.657606848000000e+00  3.73572300e-01   8.36546610e-01   2.15035190e-01
C     5.101921018275000e+00   1.650731470024237e+00   3.624842816000000e+00 -2.98991576e+00  -1.21355628e+00  -1.54656363e+00
C     8.627037874124998e+00   6.321537839734518e+00   1.335634580000000e+01 -9.85512390e-01  -1.03136688e+00  -3.92015730e-01
C     6.114575975325001e+00   6.688835540989603e-01   1.322402283200000e+01  1.20351201e+00  -1.00480651e+00   9.69620510e-01
C     6.262176403874999e+00   8.879960146475417e-01   3.532916064000000e+00 -7.73332530e-01   1.00888788e+00   2.03820980e-01
C     7.444722205199999e+00   1.561011339747460e+00   3.725419168000000e+00  3.07526993e+00   3.48120345e+00   2.73076710e-01
C     1.217303410575000e+00   2.016173921819858e+00   1.344494259200000e+01 -1.06650633e+00   1.03165515e+00  -3.09881130e-01
C     2.451599754675000e+00   2.729426366500634e+00   1.094141760000000e-01  3.29717320e-01  -2.35885799e+00  -2.02763325e+00
C     2.544944325375000e+00   2.907074203364331e+00   3.765960632000000e+00  1.50390326e+00   2.35461151e+00   8.71898900e-02
C     3.766464623775000e+00   3.629367923121541e+00   3.623014976000000e+00 -1.79232670e-01   3.22578124e+00  -1.79791863e+00
C     3.661581856425000e+00   1.975800327504003e+00   1.344624071200000e+01  1.30538308e+00   1.73766970e+00   1.25496484e+00
C     4.906133808374999e+00   2.775043254811628e+00   1.319121310400000e+01 -6.97503780e-01  -1.37019059e+00  -1.55276210e-01
C     5.081669514974999e+00   3.062315078997775e+00   3.406239000000000e+00 -3.35780305e+00  -2.21080916e+00   2.77691670e+00
C     6.205984091324999e+00   3.791435609548587e+00   3.589770728000000e+00  4.62179347e+00   1.81697195e+00   6.56830670e-01
C     6.179659851000000e+00   2.079391183709440e+00   1.299752775200000e+01 -3.39751419e+00  -1.63832452e+00   1.53740511e+00
C     7.370222978549999e+00   2.721599018501563e+00   1.306298183200000e+01  3.63052352e+00   1.85500592e+00   2.22541191e+00
C     7.497871142475000e+00   3.110616504118524e+00   3.860288735999999e+00 -2.65450597e+00  -3.59124795e+00  -1.99575293e+00
C     8.771931991499999e+00   3.705625662950812e+00   3.799614376000000e+00 -1.09449166e+00  -9.26870760e-01   1.52358370e-01
C     2.507178319200000e+00   4.097199792348063e+00   8.987777599999999e-02 -3.01939567e+00   2.73898976e+00  -2.05882104e+00
C     3.669308522175000e+00   4.837261933410106e+00   1.350684068000000e+01  8.59106060e-01   2.05124731e+00  -3.65607150e-01
C     3.693686990100000e+00   5.131074490191250e+00   3.474490872000000e+00  1.93649685e+00  -6.96922130e-01   8.38952360e-01
C     4.971397234649999e+00   5.850359873861303e+00   3.607273792000000e+00 -2.16828603e+00   1.34739162e+00  -4.30147060e-01
C     4.882293437625000e+00   4.194685341450405e+00   1.315436036800000e+01  1.07418312e+00  -1.76486640e-01   6.07565970e-01
C     6.162965934299999e+00   4.927264107203038e+00   1.295356452800000e+01 -2.79871280e-01  -3.09781554e+00   2.31796232e+00
C     6.198294807300000e+00   5.265922415606253e+00   3.624226328000000e+00  1.44393358e+00  -4.54913424e+00  -4.70730490e-01
C     7.462553842649999e+00   5.862797070710580e+00   3.582274952000000e+00  2.07350699e+00  -2.76018010e-01   1.25563932e+00
C     7.421050662299999e+00   4.170628579352836e+00   1.314981348000000e+01 -9.65015180e-01   3.96505140e-01  -1.29418575e+00
C     8.641613714924999e+00   4.882901236623610e+00   1.331041193600000e+01  8.99509310e-01  -1.23229893e+00   2.13696491e+00
C     8.756141263124999e+00   5.067113950134437e+00   3.661199423999999e+00 -2.22835785e+00   4.75869418e+00  -1.59199667e+00
C     9.888065479349999e+00   5.915396777536647e+00   3.423857528000000e+00  1.38186062e+00  -4.43319294e+00   1.46664308e+00
C     7.441862521725000e+00   9.871068363095940e-02   6.513518584000000e+00 -1.09505286e+00   1.83833682e+00   1.07604377e+00
C     1.283385722175000e+00   7.415634271895850e-01   6.805622648000001e+00 -1.13657309e+00   3.44787119e+00   5.86465850e-01
C     1.127902926150000e+00   5.328557722584096e-01   1.007470333600000e+01 -1.17133400e-01   2.88649551e+00   1.33950868e+00
C     2.318051526975000e+00   1.292530568761232e+00   1.020360345600000e+01  2.95350046e+00  -1.13161281e+00  -8.52241370e-01
C     2.447188932975000e+00   1.019240840547930e-01   7.122999727999999e+00  3.29693040e+00  -2.14764593e+00  -3.42949470e-01
C     3.702115404375000e+00   8.968905041338242e-01   7.334828568000000e+00 -1.38118349e+00  -2.74036112e+00  -2.61194277e+00
C     3.658615758900000e+00   5.691032313202237e-01   9.961132592000000e+00 -4.09322584e+00  -7.62122250e-01  -1.94020060e-01
C     4.807555352475000e+00   1.307342208254683e+00   9.931506488000000e+00  2.88336572e+00  -6.36905360e-01   2.18277280e+00
C     4.795317551849999e+00   1.411328079084924e-01   6.809047536000000e+00  3.34034082e+00  -6.57246660e-01   1.05909584e+00
C     6.100961484525000e+00   8.075258742108559e-01   6.611274840000000e+00  5.40758020e-01  -1.84441516e+00   7.51146760e-01
C     6.059029653000000e+00   5.365033813651512e-01   9.989103848000001e+00 -1.14332068e+00  -6.94051620e-01  -1.96256590e-01
C     7.261801296974999e+00   1.202271264015222e+00   1.018602341600000e+01  6.83628400e-01   2.15619603e+00  -1.05983206e+00
C     8.666941885724999e+00   2.238920670618832e+00   6.955253111999999e+00  2.99551203e+00  -1.96240784e+00  -2.87786640e-01
C     2.531787843900000e+00   3.050398100014466e+00   7.082413519999999e+00 -1.41849895e+00  -2.38581126e+00   1.14793822e+00
C     2.354779386075000e+00   2.717649320551565e+00   1.036086447200000e+01 -1.76125780e-01  -2.35666643e+00  -7.01646200e-01
C     3.599530781175000e+00   3.334579165314798e+00   1.037020304800000e+01  1.39015530e-01   4.20752417e+00  -5.15275890e-01
C     3.729062784374999e+00   2.295766528491236e+00   7.416510439999999e+00 -2.12715600e-02   1.58485208e+00  -3.10641870e+00
C     4.961200564950000e+00   2.968508007525060e+00   7.113616680000000e+00  3.61540020e-01  -2.46368273e+00  -4.34581170e-01
C     4.817751393600000e+00   2.691266019658617e+00   1.026819176000000e+01  8.49479150e-01   1.96979110e-01  -9.26786950e-01
C     6.040421355674999e+00   3.485351662154162e+00   1.019846809600000e+01  1.16012948e+00  -4.61750529e+00  -1.00628906e+00
C     6.166849862249999e+00   2.156335267853567e+00   6.830728927999999e+00  3.07876180e-01   2.82459159e+00   1.10668723e+00
C     7.466249161124999e+00   2.833231317046330e+00   6.899341064000000e+00 -2.58329232e+00   2.87058841e+00   1.27998400e-02
C     7.272692098349999e+00   2.657549267132760e+00   1.015569188000000e+01  9.31824300e-02   9.68687510e-01   6.23728970e-01
C     8.529222656175000e+00   3.389669872278090e+00   1.021535372000000e+01 -2.14605103e+00  -6.55545000e-02  -1.60189053e+00
C     9.897111634949999e+00   4.442205360716323e+00   6.901305583999999e+00  1.17910423e+00   3.99961450e-01  -1.41947083e+00
C     3.803563305150000e+00   5.157744125453119e+00   6.660518264000000e+00 -1.80367875e+00  -4.51900674e+00   1.82053981e+00
C     3.624389258550000e+00   4.839855593800828e+00   1.026326448000000e+01 -2.96452780e-01  -1.13677666e+00  -7.10325270e-01
C     4.883376546299999e+00   5.590245817471115e+00   1.014395739200000e+01 -1.26742002e+00  -4.11645817e+00  -7.18255010e-01
C     5.002811046750000e+00   4.333207069386796e+00   6.889222800000000e+00  6.11051460e-01   3.00400075e+00   2.42190600e-02
C     6.306536124825000e+00   5.002489993005906e+00   7.002611032000000e+00 -4.66868033e+00   2.81743455e+00  -5.42460740e-01
C     6.096405831749999e+00   4.826155605386716e+00   9.952134424000000e+00 -2.20060890e-01   2.47506704e+00   8.98662190e-01
C     7.355728704599999e+00   5.504804563998340e+00   9.721175687999999e+00 -2.83097540e+00   1.86605770e+00   1.93715862e+00
C     7.482867907650000e+00   4.310207970474806e+00   6.999304192000000e+00 -9.21291000e-01  -2.27146965e+00  -5.27246990e-01
C     8.604040126650000e+00   5.063900101412552e+00   6.826302808000000e+00  2.00837182e+00   2.24745258e+00   3.20902880e-01
C     8.490651297525000e+00   4.756724035925262e+00   9.813336767999999e+00  3.76430100e+00   3.44598240e-01   2.23641249e+00
C     9.761597890200001e+00   5.493790905586184e+00   9.993913488000000e+00  5.05112700e-02   4.46379840e-01   9.60300900e-02
