72
Lattice="7.395 0 0 3.6975 6.40425786098592 0 0 0 13.6 " PBC="1 1 1" Properties=species:S:1:pos:R:3:force:R:3 Energy="-583.22240816"
C     3.673319459250000e+00   6.308996317524701e+00   1.353536355200000e+01  4.39881520e-01  -1.27112851e+00  -1.54828680e-01
C     1.200336803250000e+00   6.071893528136436e-01   1.354277351200000e+01  6.97184250e-01  -9.96873680e-01  -5.01368000e-03
C     1.293645249375000e+00   8.601875742530070e-01   3.471835472000000e+00  3.58660850e-01  -3.30539720e-01  -9.26418700e-02
C     2.541975121950000e+00   1.544936780604017e+00   3.498977808000000e+00 -7.59438510e-01   1.39130956e+00  -3.06331700e-01
C     6.135756993149999e+00   6.276791610279591e+00   1.353646379200000e+01  3.81079350e-01   9.67324850e-01  -1.09128370e-01
C     3.680393516250000e+00   6.008570788119900e-01   1.351259348000000e+01 -1.71906740e-01  -1.71310180e-01   1.31401110e-01
C     3.758243121600000e+00   8.396028165116592e-01   3.487507432000000e+00  8.47316260e-01   1.57070951e+00   9.64833600e-02
C     4.997220426750000e+00   1.576729053642943e+00   3.497067552000000e+00  2.07999030e-01  -5.14560230e-01  -3.57829940e-01
C     8.611324423499999e+00   6.276596920840647e+00   1.352538727200000e+01 -2.86660980e-01   4.42737080e-01  -2.28271330e-01
C     6.157210738575000e+00   5.821400588329326e-01   1.354081878400000e+01 -1.09397086e+00   1.08540362e+00   1.10876270e-01
C     6.246580755599999e+00   8.530116673634556e-01   3.456855072000000e+00 -1.15960503e+00   1.52539600e-01   1.66740660e-01
C     7.458144204150000e+00   1.571250851469499e+00   3.450226296000000e+00  5.61311210e-01   1.41374810e-01   7.64074900e-02
C     1.214937380325000e+00   1.996575483831529e+00   1.354996124800000e+01 -4.84852840e-01   1.78758160e+00  -3.13177800e-02
C     2.450293206075000e+00   2.727333070776514e+00   1.353598466400000e+01 -4.16262870e-01  -7.48323700e-02  -1.93690780e-01
C     2.538018796950000e+00   2.996451321590127e+00   3.476902288000000e+00  2.24995400e-02  -6.54984170e-01   1.73179140e-01
C     3.769746709650000e+00   3.712542261439612e+00   3.509495504000000e+00 -4.55676950e-01  -6.14228740e-01  -4.86829690e-01
C     3.677502367050000e+00   2.042827354309342e+00   1.350842603200000e+01  3.18701500e-02  -1.41822218e+00   5.34344710e-01
C     4.900531578224999e+00   2.738775558294976e+00   1.358957356000000e+01  4.74885840e-01  -6.32754300e-01  -3.69662740e-01
C     4.999999245900000e+00   3.008085296418602e+00   3.480534440000000e+00 -3.61312410e-01  -1.42292344e+00   3.85922400e-01
C     6.226461992550000e+00   3.670486909009721e+00   3.490768711999999e+00  8.48167890e-01   2.35270661e+00  -3.09021090e-01
C     6.144434323124999e+00   2.022243493164094e+00   1.358632547200000e+01 -2.66537230e-01  -2.69734650e-01  -1.42722220e-01
C     7.363144521524999e+00   2.738724580402411e+00   1.356815247200000e+01  8.03689470e-01  -5.53368690e-01   1.63495750e-01
C     7.468393230450000e+00   2.995205821521514e+00   3.457488560000000e+00 -5.16526070e-01  -6.54893380e-01   6.05787600e-02
C     8.691515248875000e+00   3.708040260291767e+00   3.453350216000000e+00  4.35123780e-01  -4.30650210e-01   3.08393300e-01
C     2.450173185225000e+00   4.139569017455672e+00   1.351576608800000e+01 -5.75654950e-01   9.25381190e-01  -1.31051610e-01
C     3.677036408100000e+00   4.870998987433380e+00   1.350708820000000e+01 -2.19889210e-01  -3.15806050e-01   4.30211570e-01
C     3.761148506175000e+00   5.112857386580744e+00   3.464070688000000e+00  4.67174190e-01   8.29543920e-01   1.56834390e-01
C     4.995072401100000e+00   5.841710155110430e+00   3.462902040000000e+00  2.19047360e-01  -3.13927620e-01   7.72485000e-02
C     4.894868450250000e+00   4.135271055963247e+00   1.357872552000000e+01  8.06218010e-01   1.55743237e+00  -2.83820370e-01
C     6.148869585300000e+00   4.868180857804664e+00   1.355660076800000e+01 -8.30068470e-01  -4.68845130e-01   2.81840790e-01
C     6.240765364574999e+00   5.135966254472454e+00   3.478593039999999e+00 -7.93031720e-01  -7.91069160e-01  -1.77390900e-02
C     7.456544295899999e+00   5.859961649585644e+00   3.475711472000000e+00  5.39360810e-01  -2.04581251e+00   1.75483280e-01
C     7.378612273274999e+00   4.168444407209683e+00   1.357497287200000e+01 -7.64965710e-01  -8.39683620e-01  -4.59763180e-01
C     8.586415808024999e+00   4.857836636466614e+00   1.349383336800000e+01  1.63886885e+00   2.67376970e-01   5.91589130e-01
C     8.689999162949999e+00   5.112723729719206e+00   3.496234687999999e+00  2.84435370e-01   1.21819600e+00  -4.59852160e-01
C     9.937935399674998e+00   5.824448182517165e+00   3.465180992000000e+00 -7.39478640e-01   1.89074490e-01   1.15530240e-01
C     7.427405222775000e+00   9.590894890236661e-02   6.976393088000000e+00  7.67488400e-02   2.08042690e-01  -2.83888510e-01
C     1.269080020725000e+00   8.035047687857191e-01   6.929738696000000e+00 -2.37037640e-01   6.48817150e-01  -1.10238770e-01
C     1.135474999425000e+00   5.850123684831426e-01   1.005985689600000e+01  1.26369726e+00  -4.20070000e-03   3.41632500e-01
C     2.392821003900000e+00   1.301124762596459e+00   1.010166615200000e+01 -5.94320760e-01  -4.08237420e-01   1.17166100e-02
C     2.493351739800000e+00   1.043154979822956e-01   6.854370759999999e+00  4.45357570e-01  -6.34645560e-01   1.46173130e-01
C     3.744482431649999e+00   8.102061201678444e-01   6.824364672000001e+00 -8.81669580e-01  -1.00886740e-01   2.29248620e-01
C     3.630715681050000e+00   5.973986514824329e-01   1.016208592000000e+01 -1.50993212e+00  -7.56368200e-01  -4.29605430e-01
C     4.823779058100000e+00   1.289668826136491e+00   1.010028384800000e+01  2.25591675e+00   7.54488310e-01   1.21270100e-01
C     4.964248968824999e+00   1.084318347218106e-01   6.886251199999999e+00  1.63368040e-01  -8.20113200e-01   1.41335500e-01
C     6.187043906400000e+00   8.237385731963388e-01   6.962287440000000e+00  3.63531850e-01  -1.31689898e+00  -4.54374740e-01
C     6.090072310050000e+00   5.683161480292297e-01   1.008430983200000e+01 -7.37375180e-01   9.18360010e-01   1.38815600e-02
C     7.314858462300000e+00   1.291576654552985e+00   1.004786958400000e+01 -5.32947120e-01   3.54630510e-01  -9.24024000e-03
C     8.661458752049999e+00   2.245394414676614e+00   6.936520064000000e+00  2.14179790e-01  -7.56442250e-01  -4.89935680e-01
C     2.493822912225000e+00   2.962042204747026e+00   6.864261088000000e+00  2.58070080e-01  -1.24517165e+00   4.04015060e-01
C     2.388164150550000e+00   2.713757773262937e+00   1.006847181600000e+01 -1.79484160e-01   2.71719900e-02   1.76141390e-01
C     3.612182479950000e+00   3.427290596352823e+00   1.004703413600000e+01  2.99778610e-01   5.75172750e-01   1.51432430e-01
C     3.726309736800000e+00   2.222415040878833e+00   6.835407192000001e+00  4.83062470e-01   1.27603374e+00   7.08320800e-02
C     4.966346856374999e+00   2.961235652512137e+00   6.868307903999999e+00 -2.61058780e-01  -1.28877184e+00   2.23653600e-02
C     4.844904724350000e+00   2.726362121242360e+00   1.005573813600000e+01  1.01298910e-01  -3.81817420e-01   8.38121400e-02
C     6.097242502049999e+00   3.439739577036563e+00   1.005164535200000e+01 -9.59303830e-01  -9.26134820e-01  -4.06017000e-02
C     6.193868160300000e+00   2.213589717377439e+00   6.909860119999999e+00  5.40184900e-02   1.78181009e+00   3.00518300e-02
C     7.437598527750000e+00   2.933510787682676e+00   6.924643184000000e+00 -6.12781750e-01   7.02076650e-01  -1.11019830e-01
C     7.311652951649999e+00   2.726938632534917e+00   1.002539245600000e+01  4.35025280e-01  -7.34914690e-01   6.11607830e-01
C     8.543949244049999e+00   3.416367750317121e+00   1.008768820800000e+01 -6.63851200e-02   9.67889940e-01  -2.14011540e-01
C     9.889208154749999e+00   4.359068743477048e+00   6.936507143999999e+00  6.74908930e-01   8.76260090e-01  -4.07700870e-01
C     3.747171882225000e+00   5.081057556517543e+00   6.942498079999999e+00 -1.09564791e+00   2.32532900e-02  -9.04048600e-02
C     3.607085439225000e+00   4.869833220375123e+00   1.003360427200000e+01  7.87678350e-01  -1.20428843e+00   3.93804320e-01
C     4.837844015325000e+00   5.566695119829644e+00   1.006792536800000e+01  5.69087420e-01  -2.88856410e-01  -1.00056710e-01
C     4.970766441149999e+00   4.377898670522177e+00   6.899630880000000e+00 -2.38307770e-01  -4.57929650e-01  -1.18950560e-01
C     6.190561818825000e+00   5.072342514336498e+00   6.876925136000000e+00  7.66242390e-01   9.89036940e-01  -7.42257200e-02
C     6.085341839474999e+00   4.830357118755769e+00   1.007959240000000e+01 -1.90505400e-01   1.99827456e+00   2.96053840e-01
C     7.316341455600000e+00   5.572507175965329e+00   1.015306762400000e+01 -3.03751550e-01  -4.82116950e-01  -2.09394590e-01
C     7.437333158175000e+00   4.378054614201068e+00   6.885614992000001e+00 -6.96672470e-01  -1.11621561e+00   4.57619600e-02
C     8.659058667824999e+00   5.067458755377619e+00   6.910302528000000e+00  3.61433830e-01   1.09449193e+00  -4.96234600e-02
C     8.532969443850000e+00   4.857996550785378e+00   1.012867752000000e+01  9.19100270e-01  -4.67550840e-01  -1.29600930e-01
C     9.796412588850000e+00   5.564357757838479e+00   1.008869338400000e+01 -1.56030236e+00   6.40397000e-02   1.08641230e-01
