72
Lattice="7.395 0 0 3.6975 6.40425786098592 0 0 0 13.6 " PBC="1 1 1" Properties=species:S:1:pos:R:3:force:R:3 Energy="-575.69412969"
C     3.719160879375000e+00   6.207964858930435e+00   1.358116250400000e+01 -9.23665000e-01  -5.84495850e-01  -6.33196030e-01
C     1.280539312725000e+00   4.700984641683330e-01   4.392473600000000e-02 -2.06038005e+00   3.42778608e+00  -2.74540640e-01
C     1.401955747125000e+00   1.033077816037667e+00   3.690584400000000e+00  6.36732060e-01   1.11730520e-01  -4.92873880e-01
C     2.605205182050000e+00   1.791348286876949e+00   3.829654736000000e+00  1.26796367e+00  -2.02879669e+00  -1.49023766e+00
C     6.218178113550000e+00   6.251384254241928e+00   1.350841814400000e+01 -3.83720805e+00  -2.54622326e+00   7.51251070e-01
C     3.702738654975000e+00   5.127284066134230e-01   1.353330124800000e+01 -1.25297582e+00   1.37943167e+00  -4.92663870e-01
C     3.851163773925000e+00   1.078177112228416e+00   3.668418031999999e+00 -2.28131827e+00  -3.85250687e+00   4.59871830e-01
C     5.075454978825000e+00   1.668244681653350e+00   3.633573200000000e+00  1.09665375e+00   1.09940402e+00  -6.71874730e-01
C     8.536746181274999e+00   6.210915172441379e+00   1.347181224800000e+01  4.84005166e+00  -9.69530310e-01  -3.62467790e-01
C     6.105992857650000e+00   4.612651353446136e-01   1.352573312000000e+01  1.46570784e+00   1.97153280e-01   5.03773690e-01
C     6.326051714700000e+00   9.707524110976692e-01   3.500381192000000e+00  6.08614000e-01   1.21727407e+00   6.96620460e-01
C     7.565316500475000e+00   1.717593331019366e+00   3.608878048000000e+00 -6.48943600e-01  -2.43333786e+00   2.17835800e-02
C     1.193839556250000e+00   1.967116345973579e+00   1.146628240000000e-01  1.96406623e+00  -1.24271084e+00  -1.04294646e+00
C     2.443261189650000e+00   2.662101157449334e+00   1.166915360000000e-01 -4.45387520e-01   1.04237269e+00  -1.30363477e+00
C     2.626578100125000e+00   3.173133332325957e+00   3.717320912000000e+00 -1.00511391e+00   2.59329309e+00   1.22463690e-01
C     3.841076439300000e+00   3.922137866723077e+00   3.679783960000000e+00  2.24727218e+00  -2.03688967e+00  -1.53880900e+00
C     3.673769592900000e+00   1.893953335669996e+00   1.354456762400000e+01  2.04355040e-01   3.36077324e+00   1.90069519e+00
C     4.934202048525000e+00   2.580877171819947e+00   6.052380800000000e-02 -1.65217303e+00   2.62023868e+00  -1.32321794e+00
C     5.035278424500000e+00   3.059141705185566e+00   3.609588240000000e+00  2.35470579e+00   4.39616088e+00   9.63791260e-01
C     6.368430758850000e+00   3.788917903656086e+00   3.660080960000000e+00 -3.81952054e+00   1.04760145e+00  -5.36368880e-01
C     6.103931279550000e+00   1.845710957806716e+00   5.395936000000000e-03  2.66405999e+00   2.98324396e+00  -5.31211560e-01
C     7.396460105774999e+00   2.673939107890650e+00   1.351863732000000e+01 -2.77491825e+00  -1.14727332e+00   1.67268461e+00
C     7.561726819575000e+00   3.084957076491490e+00   3.701011112000000e+00  1.47354611e+00   3.32561686e+00  -6.40570850e-01
C     8.784023519025000e+00   3.886990467033875e+00   3.640217752000000e+00 -2.30912350e-01   1.66476180e-01   9.35576090e-01
C     9.789074937074998e+00   4.170634791482960e+00   1.358553708000000e+01  3.33397472e+00  -4.47313100e+00  -3.09847460e-01
C     3.686380804050000e+00   4.794788062729065e+00   1.352283672800000e+01 -2.82652570e-01   4.08775840e-01   6.36477180e-01
C     3.936242694300000e+00   5.355549620101481e+00   3.439064232000000e+00 -2.39902033e+00  -3.18765098e+00   1.43781639e+00
C     5.141910922799999e+00   6.025069181048518e+00   3.520054680000000e+00  6.24971220e-01  -1.99022510e-01   5.70468160e-01
C     4.925643260399999e+00   4.108112007315717e+00   1.357536115200000e+01 -1.25194290e+00  -2.88954048e+00   3.08187660e-01
C     6.113732242799999e+00   4.819941169729686e+00   1.352840035200000e+01  1.51049606e+00   1.12672270e-01  -1.18968640e-01
C     6.340801522874999e+00   5.242460993319351e+00   3.625152352000000e+00  8.04242050e-01  -2.68319360e-01  -2.59971320e-01
C     7.569372399150000e+00   5.977082717329324e+00   3.618655496000000e+00 -1.77742053e+00   3.25275455e+00   5.62884280e-01
C     7.324178565675000e+00   4.103840559450832e+00   1.353270040000000e+01  2.34658356e+00  -1.37558928e+00  -1.06549497e+00
C     8.613022907100000e+00   4.812691549832166e+00   1.339505072000000e+01 -3.86641604e+00  -2.58841160e-01   1.62834363e+00
C     8.802054784499999e+00   5.390539923345377e+00   3.652223559999999e+00  1.37358900e-01  -5.99324607e+00  -9.47773680e-01
C     1.005042085560000e+01   5.969244802304784e+00   3.495055296000000e+00  9.20080930e-01   2.71937616e+00   2.62080300e-02
C     7.441016422800000e+00   1.961005531208724e-01   7.047286487999999e+00 -9.56870180e-01  -5.21623430e-01  -4.98304450e-01
C     1.263754918200000e+00   9.470711306384330e-01   7.037500880000000e+00 -4.33697040e-01  -2.98520207e+00  -8.71316000e-01
C     1.102485571650000e+00   3.956983433739337e-01   9.787781144000000e+00 -2.37315858e+00  -8.66179500e-02   6.43545990e-01
C     2.305296483075000e+00   1.083230968276057e+00   9.947893536000000e+00 -6.04880240e-01   1.19085982e+00   2.28496310e-01
C     2.499211796625000e+00   2.082959892359346e-01   6.829302695999999e+00 -1.42290682e+00   2.73692106e+00   6.84876110e-01
C     3.741601857300000e+00   8.450228680237344e-01   6.779584903999999e+00  1.39710992e+00   1.19830204e+00   7.73849600e-01
C     3.465917884200000e+00   3.664559896445448e-01   1.009621935200000e+01  4.36252373e+00   6.16645060e-01  -1.40206088e+00
C     4.795281205425000e+00   1.150156487594314e+00   9.899917087999999e+00 -1.98500538e+00  -1.74562068e+00   1.24870898e+00
C     5.018906707950000e+00   1.951166029432620e-01   6.923790056000000e+00 -1.45818829e+00   2.53638760e-01  -2.13626140e-01
C     6.220948761224999e+00   9.262528736555096e-01   7.072487831999999e+00  1.50340600e-02   1.45475691e+00  -1.55089763e+00
C     6.032843699174999e+00   4.314454377691458e-01   9.795081079999999e+00 -7.49718840e-01   6.60237200e-02   6.56235970e-01
C     7.260425013524999e+00   1.194059340331658e+00   9.727169072000001e+00  9.27222830e-01  -3.04468781e+00   3.24952730e-01
C     8.631714546074999e+00   2.310541663714885e+00   7.112793336000000e+00 -1.88017264e+00   1.52837205e+00  -1.60726128e+00
C     2.460394997925000e+00   2.901474576461862e+00   6.953608328000001e+00  2.09213972e+00   4.61831445e+00   3.80938350e-01
C     2.324174439075000e+00   2.505815299060874e+00   9.934086272000000e+00 -7.48812800e-01   2.85036927e+00  -7.23182300e-02
C     3.548923172625000e+00   3.285467985830230e+00   9.835980224000000e+00 -7.37979530e-01  -3.01068610e+00   1.06150342e+00
C     3.749348267700000e+00   2.255009511257303e+00   6.844229375999999e+00 -3.14779649e+00  -6.64918540e-01   9.54017800e-02
C     4.908952893300000e+00   2.978898659732596e+00   6.884382016000000e+00  8.05864170e-01   4.44172958e+00   7.37875900e-02
C     4.776853087275000e+00   2.577820675713684e+00   9.886722775999999e+00  5.95459940e-01  -1.81061029e+00  -9.42441570e-01
C     6.020707431900000e+00   3.219002868609528e+00   9.733637640000000e+00 -5.18937190e-01   2.33412104e+00   5.45017910e-01
C     6.158416419375000e+00   2.453549510239628e+00   6.952197599999999e+00  1.27305550e+00  -6.13304724e+00   3.12547110e-01
C     7.368636972899999e+00   3.110536002597224e+00   6.990145272000000e+00  1.40067654e+00  -4.12263000e-01   7.61772300e-02
C     7.283726880374999e+00   2.597634296766109e+00   9.667853623999999e+00 -1.44632378e+00  -1.23850016e+00   2.05654525e+00
C     8.458731852300000e+00   3.303627963460625e+00   9.932213688000001e+00  2.41904157e+00  -2.31906408e+00  -9.34055430e-01
C     9.864219340500000e+00   4.401257048300113e+00   7.029751463999999e+00 -1.22852029e+00  -2.61712760e-01  -1.22346099e+00
C     3.677627083725000e+00   5.122667813026164e+00   6.957827592000000e+00  7.11651480e-01   1.42683187e+00   4.32181490e-01
C     3.566381473499999e+00   4.650274959436906e+00   9.749405343999999e+00 -3.06851820e+00   1.76721051e+00   9.76167300e-01
C     4.765128277800000e+00   5.341055375627572e+00   9.779714031999999e+00  4.66417610e-01   2.74479893e+00   1.66593600e-01
C     4.908632985599999e+00   4.442405429731870e+00   6.953063919999999e+00 -1.05020300e-01   6.56088240e-01  -9.79721080e-01
C     6.114404226450000e+00   5.278530734225549e+00   6.885629000000000e+00  1.96514410e-01  -6.35322904e+00  -1.36940050e-01
C     5.983062555825001e+00   4.665296082204959e+00   9.803064687999999e+00  1.82169010e-01  -1.85972438e+00   7.27888940e-01
C     7.169659301175000e+00   5.345566598906735e+00   1.002739097600000e+01  1.68910457e+00   1.88828254e+00  -5.04290590e-01
C     7.327656693000000e+00   4.502691142586037e+00   6.897117327999999e+00  2.75755132e+00   1.98746563e+00   2.77518870e-01
C     8.645872051725000e+00   5.210497342340091e+00   6.965602848000001e+00 -2.63765050e-01  -3.17298367e+00  -2.20092710e-01
C     8.443241804625000e+00   4.692871023357918e+00   9.965649967999999e+00  5.74795830e-01   5.39944170e-01   2.32368080e-01
C     9.684425075249999e+00   5.375144215535094e+00   9.859502919999999e+00  1.36823250e+00   1.31617247e+00  -1.22556400e-02
