72
Lattice="7.395 0 0 3.6975 6.40425786098592 0 0 0 13.6 " PBC="1 1 1" Properties=species:S:1:pos:R:3:force:R:3 Energy="-568.68163615"
C     3.750539121525000e+00   6.036721792267366e+00   2.280909040000000e-01 -1.83048299e+00   6.19001510e+00  -2.03192320e-01
C     1.215529608900000e+00   5.208672577148040e-01   1.069286400000000e-01  9.06326700e-02  -1.98840868e+00   8.35047940e-01
C     1.548669404250000e+00   1.096904379020050e+00   3.300314448000000e+00 -2.90539908e+00   1.98025250e-01   5.50944060e-01
C     2.707990912275000e+00   1.967409981196460e+00   3.103061272000000e+00 -2.35781250e+00  -3.52551592e+00   5.81375370e-01
C     6.131426629049999e+00   6.163300347805801e+00   2.957843600000000e-01 -2.17474900e-02   6.97711200e-02  -4.25509120e-01
C     3.643331735924999e+00   5.219338868613871e-01   2.769366640000000e-01  2.24912024e+00  -1.10216969e+00  -6.66226940e-01
C     3.820749728849999e+00   1.093487707451740e+00   3.247145792000000e+00  3.22570847e+00   1.54638337e+00   1.28112651e+00
C     5.052440111925000e+00   1.763273237227702e+00   3.498941088000000e+00  2.45605421e+00   1.68721380e+00  -1.29841494e+00
C     8.645900670374999e+00   6.215008902150649e+00   4.133443919999999e-01 -3.11591373e+00  -2.26301614e+00  -7.01254430e-01
C     6.177125806350000e+00   4.750888540205809e-01   3.993913360000000e-01  7.11094630e-01  -1.55098705e+00  -1.20940212e+00
C     6.353893076249999e+00   1.130389553581689e+00   3.632867904000000e+00  1.00351470e-01  -6.14229390e-01  -6.75422790e-01
C     7.619261990175000e+00   1.744306130979212e+00   3.409253303999999e+00  1.88728672e+00   3.52020605e+00  -5.09153770e-01
C     8.541753372750000e+00   2.007670412275929e+00   5.489476800000000e-02  5.00748325e+00  -5.87685105e+00  -9.10889660e-01
C     2.415472369575000e+00   2.684062830630582e+00   1.355733584800000e+01  6.13778020e-01  -4.27982796e+00   2.99555490e-01
C     2.645238273375000e+00   3.386254865816824e+00   3.122473912000000e+00  3.12450738e+00  -2.67907030e+00   1.60591415e+00
C     3.978689439675000e+00   3.931538868963506e+00   3.510721544000000e+00 -3.88286294e+00   3.06689507e+00  -1.62200345e+00
C     3.722476353675000e+00   1.918019063728568e+00   1.358875946400000e+01 -3.36413128e+00  -5.89984210e-01   2.07603005e+00
C     4.898989203075000e+00   2.586858620576030e+00   3.518806880000000e-01  8.85376960e-01  -1.11003103e+00  -1.39188984e+00
C     5.174135966400000e+00   3.243563837928414e+00   3.406878472000000e+00 -3.52711837e+00  -4.78351622e+00   1.20973822e+00
C     6.347795270174999e+00   3.851870413525735e+00   3.496945424000000e+00  5.13462190e+00   3.91459198e+00  -3.10048360e-01
C     6.144618569550000e+00   1.904560964133828e+00   3.798545280000000e-01 -1.22330162e+00  -3.42772599e+00  -2.75690720e-01
C     7.346978792700000e+00   2.551992111636568e+00   2.125556240000000e-01 -1.76516224e+00  -1.59231970e-01   1.15925844e+00
C     7.634274209925000e+00   3.282133544932843e+00   3.315312256000000e+00 -3.11816616e+00  -5.21535442e+00   2.90790980e-01
C     8.771005324050000e+00   4.027999608723090e+00   3.188402224000000e+00  3.45502419e+00  -2.92070878e+00   1.01326050e+00
C     2.437011675150000e+00   4.004675301596970e+00   1.183580800000000e-01 -1.14216467e+00   4.40981304e+00  -1.46182660e-01
C     3.719501751900000e+00   4.676840205295658e+00   1.154257840000000e-01 -1.51003329e+00  -3.15225530e-01   9.62180360e-01
C     3.988742609400000e+00   5.374324214358700e+00   3.684179208000000e+00  2.44622050e-01   6.97320060e-01  -7.29811480e-01
C     5.261966788124999e+00   6.031472350184682e+00   3.554845384000000e+00 -1.69670161e+00   2.50352210e+00  -6.32372230e-01
C     4.903865096324999e+00   3.963767143877541e+00   3.371933680000000e-01  7.35929700e-02   1.87180821e+00  -5.94391950e-01
C     6.087513196350000e+00   4.688781840671729e+00   4.784303200000000e-01  2.05149515e+00   5.21572100e-02   6.29326700e-02
C     6.441363132899999e+00   5.306496463193126e+00   3.505160912000000e+00 -1.11364379e+00  -4.74312750e-01  -6.38506190e-01
C     7.595724481650000e+00   6.082563405986669e+00   3.374978856000000e+00  1.63139633e+00  -1.67185129e+00   1.23961263e+00
C     7.321755889724999e+00   3.809860275156336e+00   5.845254160000000e-01  8.62910340e-01   1.15379108e+01  -2.61652241e+00
C     8.544027076424999e+00   4.728880372112497e+00   2.857279760000000e-01  1.33471406e+00  -1.08315738e+00   1.56815541e+00
C     8.878011713549999e+00   5.286639805527881e+00   3.568375887999999e+00 -4.77733550e-01   9.16463418e+00  -4.28965840e-01
C     1.016379744600000e+01   6.152027701205786e+00   3.728744232000000e+00 -2.23908372e+00  -4.83461916e+00  -1.29845591e+00
C     7.370915816099999e+00   1.915718462177520e-01   6.401403040000000e+00 -7.22705650e-01   8.97316160e-01   1.45638817e+00
C     1.172633469375000e+00   9.533207256711139e-01   6.399896296000000e+00 -3.77383590e-01   1.71751755e+00   1.25618100e-02
C     1.067492357700000e+00   3.391653975405696e-01   1.036011348000000e+01  2.42829586e+00  -2.67364620e-01  -8.17568090e-01
C     2.266387505700000e+00   9.968156912253541e-01   9.909242744000000e+00  1.68888763e+00   1.80909848e+00   1.41365864e+00
C     2.393795517000000e+00   3.186088825763844e-01   6.586416760000000e+00  1.59307353e+00  -4.09534765e+00   8.81915160e-01
C     3.748109161500000e+00   8.963579900927652e-01   6.613164560000000e+00 -1.79687623e+00  -8.65198300e-02  -2.11434770e-01
C     3.575694736500000e+00   3.188016507379704e-01   9.898832216000001e+00 -3.56088516e+00  -1.04126125e+00   4.13805680e-01
C     4.759364282024999e+00   9.930766933589502e-01   1.004435507200000e+01  3.29380794e+00   1.23595295e+00   1.94848273e+00
C     5.029122530699999e+00   1.895712841474452e-01   6.693428360000000e+00 -1.81070703e+00   2.34375660e+00  -5.31590660e-01
C     6.214206517875000e+00   1.010871308078432e+00   6.584918312000000e+00 -1.07586620e+00  -3.08160136e+00  -7.50867300e-01
C     6.039729553425000e+00   3.713878445799522e-01   1.038895472800000e+01 -9.07457600e-01   3.86486520e-01  -4.80508780e-01
C     7.307102623274999e+00   1.039635648001150e+00   1.058029557600000e+01 -3.37086859e+00   1.71024784e+00  -1.79122180e+00
C     8.490236955675000e+00   2.432546618502601e+00   6.314508288000000e+00  2.14865450e+00  -1.27064035e+00  -1.24949990e-01
C     2.398727168550000e+00   3.051023539837073e+00   6.325344768000000e+00 -3.84906510e-01  -3.26062296e+00   1.11422536e+00
C     2.341210263600000e+00   2.509210260195039e+00   9.915884439999999e+00 -1.38500461e+00  -4.34514070e+00   4.41138960e-01
C     3.577584602700000e+00   3.104644725791809e+00   1.000062236800000e+01 -3.23397580e-01   3.75283425e+00   1.64029731e+00
C     3.652933551824999e+00   2.285958023323174e+00   6.491903015999999e+00  1.17634124e+00   3.29751703e+00   7.53323100e-02
C     4.880403275625000e+00   3.141337857158101e+00   6.593763208000000e+00 -7.45264750e-01  -6.51613501e+00  -6.76476860e-01
C     4.768188587625000e+00   2.372118090698156e+00   1.025150347200000e+01 -2.66747030e-01   2.75963780e+00  -1.26114707e+00
C     5.974937817224999e+00   3.149052426176257e+00   1.040676692000000e+01  1.29147658e+00  -7.88517770e-01  -5.95918270e-01
C     6.182660002499999e+00   2.392220479737488e+00   6.453575224000000e+00 -3.01667609e+00   3.34848088e+00   1.10954208e+00
C     7.303936601925000e+00   3.221759837575680e+00   6.308854768000000e+00  1.72453635e+00  -7.81345230e-01   1.24877710e+00
C     7.241728124100000e+00   2.431477555738031e+00   1.039280434400000e+01  2.11715824e+00   2.62005537e+00  -2.58368410e-01
C     8.554569573300000e+00   3.199553777914494e+00   1.014924711200000e+01 -3.69305230e+00   8.30601760e-01   2.82472880e-01
C     9.746127587175000e+00   4.404052827068895e+00   6.464647936000000e+00  3.29643340e+00   1.97445222e+00  -4.11996690e-01
C     3.551341374600000e+00   5.169111170813991e+00   6.479793168000000e+00  1.29314038e+00   6.25104330e-01   8.25073850e-01
C     3.433001334150000e+00   4.598455291218189e+00   1.026829947200000e+01  5.35952643e+00  -6.76752930e-01   2.42216820e-01
C     4.704609779325000e+00   5.351447885069887e+00   1.042802453600000e+01  1.47772454e+00  -3.97927310e+00  -1.51074313e+00
C     4.754689421849999e+00   4.470358222098569e+00   6.656695576000000e+00  3.25515258e+00   2.73803534e+00  -2.27469490e-01
C     6.033542970375000e+00   5.184030593967226e+00   6.761504656000000e+00  7.56505010e-01   4.91899504e+00  -1.78301692e+00
C     5.985595232400000e+00   4.561672820454750e+00   1.029451959200000e+01 -2.85131050e-01   2.27831363e+00  -9.71690500e-02
C     7.279181432700000e+00   5.315957089074232e+00   1.007106860000000e+01 -3.13667597e+00  -9.56225910e-01   7.09684180e-01
C     7.351139922225000e+00   4.707799988855363e+00   6.525148487999999e+00 -3.00080100e+00  -6.27845095e+00   9.86473200e-02
C     8.645191231049999e+00   5.180985049141902e+00   6.558308824000000e+00 -2.14609161e+00   3.48306435e+00   5.01909920e-01
C     8.492812449299999e+00   4.673482452899661e+00   1.013044524800000e+01  5.67067500e-01  -2.33914527e+00   1.35906670e-01
C     9.712029648900000e+00   5.410037045974361e+00   1.026172373600000e+01 -1.31161744e+00  -2.97711535e+00  -4.82212870e-01
