72
Lattice="7.395 0 0 3.6975 6.40425786098592 0 0 0 13.6 " PBC="1 1 1" Properties=species:S:1:pos:R:3:force:R:3 Energy="-581.8746295"
C     3.689346346949999e+00   6.346872507445470e+00   1.340829535200000e+01 -5.86004480e-01   1.02230727e+00  -3.01325020e-01
C     1.179112820475000e+00   6.938567014537159e-01   1.336708368000000e+01  1.55070911e+00  -1.38347316e+00   1.32815110e-01
C     1.262584178775000e+00   7.617711662707146e-01   3.476454712000000e+00 -1.07165300e-01   1.16032740e-01   1.24258550e-01
C     2.508852473250000e+00   1.477712566699169e+00   3.457607424000000e+00 -8.05777170e-01   2.05771560e-01   1.11756090e-01
C     6.091590873299999e+00   6.365232233878518e+00   1.339509383200000e+01  2.54844180e+00  -5.92087800e-02   3.51130990e-01
C     3.675351420375000e+00   6.943612288879266e-01   1.340855171200000e+01  3.96064930e-01  -1.12437893e+00  -5.77057810e-01
C     3.726588454350000e+00   7.514233585482625e-01   3.524212200000000e+00  6.07715730e-01   1.67352518e+00  -3.51974500e-02
C     4.942027326600000e+00   1.503511607147550e+00   3.592884992000000e+00  1.17496229e+00  -4.82276460e-01  -8.62391250e-01
C     8.663882759100000e+00   6.376064779878394e+00   1.339411123200000e+01 -2.34673416e+00  -5.37729140e-01   1.15644970e-01
C     6.180786405300000e+00   6.994767579387589e-01   1.341662331200000e+01 -1.00184515e+00  -4.93300510e-01   1.44392590e-01
C     6.204621266775000e+00   7.870422397011174e-01   3.578570583999999e+00 -1.01877156e+00   2.83397950e-01  -3.13854880e-01
C     7.433105436675000e+00   1.486942703339894e+00   3.493531143999999e+00 -2.14046000e-03   5.16123030e-01   2.08078270e-01
C     1.227791184450000e+00   2.097189000557851e+00   1.333518692000000e+01 -1.00291901e+00  -1.03015400e-02   6.89905930e-01
C     2.431137309000000e+00   2.806845070194766e+00   1.330429588000000e+01  1.65791685e+00  -5.37785960e-01  -1.36989530e-01
C     2.499545643900000e+00   2.915384176235731e+00   3.473365336000000e+00  2.47859660e-01  -9.45388290e-01   3.61071780e-01
C     3.763857294675000e+00   3.611236316353466e+00   3.588088272000000e+00 -2.50208876e+00   5.82348130e-01  -9.02897690e-01
C     3.691875252075000e+00   2.112833641871152e+00   1.330649581600000e+01 -2.51707660e-01  -5.95410910e-01   1.36832549e+00
C     4.927139527725000e+00   2.822414525520790e+00   1.348870684800000e+01 -6.07539960e-01  -6.78409830e-01  -8.47321310e-01
C     4.979310032550000e+00   2.942681428767881e+00   3.515769048000000e+00 -6.98871260e-01  -2.02604027e+00   9.04565880e-01
C     6.183364709025000e+00   3.638489123336067e+00   3.541345616000000e+00  1.31062465e+00   3.71378320e-01  -1.84328770e-01
C     6.157688492549999e+00   2.139438273915743e+00   1.349654806400000e+01  6.78195000e-02  -1.87298908e+00   6.48168100e-02
C     7.398895464150000e+00   2.801918658878539e+00   1.350163133600000e+01  1.48581220e-01  -5.51905820e-01  -3.17540240e-01
C     7.418490698175000e+00   2.929559040370163e+00   3.498332760000000e+00 -8.26872960e-01  -1.59045119e+00  -1.54019060e-01
C     8.624529083399999e+00   3.599887010786867e+00   3.472447880000000e+00  2.30731706e+00   1.14143022e+00   4.53902340e-01
C     2.461115751600000e+00   4.205421631454644e+00   1.330347593600000e+01 -1.62269200e-01   1.16748241e+00   3.44012170e-01
C     3.696288625050000e+00   4.939173849374966e+00   1.335602320800000e+01 -3.19241890e-01  -5.78117230e-01   3.44215170e-01
C     3.721840494599999e+00   5.026640897694016e+00   3.594274504000000e+00 -2.62668900e-01   6.57236120e-01  -2.40650640e-01
C     4.932318726900000e+00   5.727543371517569e+00   3.561485584000000e+00  1.40030960e+00   1.42023030e+00  -2.28210980e-01
C     4.925903897174999e+00   4.223386407305466e+00   1.346251093600000e+01 -1.64499020e-01   6.94056150e-01  -4.20298900e-02
C     6.149489729999999e+00   4.921844568031592e+00   1.348896606400000e+01  6.01842920e-01   6.23951420e-01   2.04822070e-01
C     6.195946894800000e+00   5.058710347013123e+00   3.557601560000000e+00 -6.64960670e-01  -5.41153760e-01  -3.69292350e-01
C     7.428947339100000e+00   5.756338836133486e+00   3.507434560000000e+00  1.45391430e-01  -8.79605690e-01   5.80019000e-01
C     7.418312663549999e+00   4.175216461598583e+00   1.354114096800000e+01 -1.28861169e+00   3.20539377e+00  -1.02754898e+00
C     8.621454242399999e+00   4.904517848391361e+00   1.334579573600000e+01  7.07122990e-01   1.63105666e+00   1.01688517e+00
C     8.651976032624999e+00   5.019852832660466e+00   3.560545552000000e+00  3.59647630e-01   1.42485817e+00  -7.25178190e-01
C     9.896001941249999e+00   5.782011968872339e+00   3.554626968000000e+00 -6.74894600e-01  -1.96019281e+00   4.31506930e-01
C     7.386507175275000e+00   3.055285701528060e-02   6.997601064000000e+00  1.51574705e+00   2.85918800e-01  -4.87789890e-01
C     1.260739274175000e+00   7.469075242034406e-01   6.862769440000000e+00 -9.53700690e-01  -5.14468900e-02   9.11959800e-02
C     1.208307060300000e+00   6.597029864140717e-01   1.018769825600000e+01 -6.43457770e-01  -1.08800060e-01   4.65340320e-01
C     2.433175629825000e+00   1.366366666565901e+00   1.020279480000000e+01  1.57504650e-01   2.43340510e-01   1.47030400e-01
C     2.486797033650000e+00   3.291570795272760e-02   6.764067848000000e+00 -2.95316000e-01  -4.67394620e-01   3.77874060e-01
C     3.703890315300000e+00   7.619364601660812e-01   6.721703167999999e+00  5.72517500e-02  -3.43799390e-01   2.03659020e-01
C     3.675969383550000e+00   6.458270089939668e-01   1.035341425600000e+01 -1.23049565e+00   1.10477731e+00  -1.39482398e+00
C     4.888793420775000e+00   1.345178435606405e+00   1.022042230400000e+01  6.75232280e-01   1.02414420e+00   8.09459210e-01
C     4.926967446074999e+00   2.619155741262060e-02   6.822386008000000e+00  5.11167790e-01   8.29337150e-01   6.00686640e-01
C     6.161357336925000e+00   7.316254279275942e-01   6.972948888000000e+00 -2.04147800e-01   2.06923870e-01  -9.46717250e-01
C     6.112989784800000e+00   6.578981384639664e-01   1.029171146400000e+01  4.06488570e-01  -9.25108310e-01  -5.86226990e-01
C     7.337865342600000e+00   1.360077493219645e+00   1.021177610400000e+01  7.32204180e-01  -6.37521240e-01  -2.33084480e-01
C     8.644443818399999e+00   2.175767195137536e+00   6.830708392000001e+00  3.72810790e-01  -8.10097000e-03  -3.73202290e-01
C     2.488262944500000e+00   2.918011074724746e+00   6.705004135999999e+00 -7.86324380e-01  -1.14570661e+00   1.25082497e+00
C     2.413501676025000e+00   2.815395715076545e+00   1.013194641600000e+01  7.42836540e-01  -1.85113483e+00   2.83141640e-01
C     3.648050189625000e+00   3.503274362030844e+00   1.011175123200000e+01  9.85089980e-01  -2.97181900e-01   5.14406590e-01
C     3.696369378450000e+00   2.187229663940522e+00   6.701724088000000e+00  1.34974890e+00   4.50583270e-01   1.90803510e-01
C     4.969051762499999e+00   2.915317059613359e+00   6.765025424000000e+00 -1.30857186e+00  -2.56397363e+00   1.80209650e-01
C     4.920534646500000e+00   2.772414499087834e+00   1.017380109600000e+01 -2.20997395e+00   4.00174220e-01  -2.37947000e-01
C     6.121815199649999e+00   3.484079456330273e+00   1.022140884800000e+01  4.00315190e-01   7.01430480e-01  -2.74916980e-01
C     6.178378038675000e+00   2.144960857596157e+00   6.856959384000000e+00 -1.09000140e-01   1.25921597e+00   2.37440500e-01
C     7.403141636175000e+00   2.871809541713713e+00   6.870891495999999e+00  4.83446600e-01   2.64000110e-01  -1.89680080e-01
C     7.332514357575000e+00   2.750528268064177e+00   1.018039464800000e+01  1.23416315e+00   1.72092411e+00   5.60690600e-01
C     8.590180195799999e+00   3.485585353523473e+00   1.021107516000000e+01 -1.07123269e+00   7.60336280e-01  -3.10211080e-01
C     9.882689462249999e+00   4.321059088822476e+00   6.899476247999999e+00  1.29462900e-01  -2.10484270e-01  -7.36629360e-01
C     3.711421974900000e+00   5.017473842993212e+00   6.939942095999999e+00  4.02667280e-01   1.05116740e-01  -3.09030070e-01
C     3.627427494300000e+00   4.913640329457460e+00   1.017201745600000e+01  2.01897625e+00   4.39574120e-01   3.16957050e-01
C     4.888935441749999e+00   5.643852529803087e+00   1.023041055200000e+01  1.20435370e-01  -8.07890220e-01  -3.98720370e-01
C     4.949328003374999e+00   4.297916598577001e+00   6.822353503999999e+00  2.30913040e-01   1.05119487e+00   2.56470410e-01
C     6.195458233199999e+00   4.984480387350064e+00   6.815339304000000e+00 -4.90067710e-01   1.96300855e+00  -1.17358800e-01
C     6.130916115225000e+00   4.926494251365687e+00   1.025662441600000e+01 -7.63015000e-03   2.57751200e-01   1.77480340e-01
C     7.378259938499999e+00   5.661810581183157e+00   1.034784900000000e+01 -5.97666210e-01  -2.13327956e+00  -3.16028580e-01
C     7.422160577850001e+00   4.316368098025183e+00   6.827264463999999e+00  1.14565330e-01  -1.40689366e+00   1.04587300e-01
C     8.660081063549999e+00   5.025145375398549e+00   6.865580152000000e+00 -9.94574910e-01  -1.38797860e-01  -5.41998000e-02
C     8.618272173899999e+00   4.924614665726356e+00   1.030528086400000e+01 -1.72757548e+00  -6.43120400e-01  -2.80591680e-01
C     9.821875681424999e+00   5.623813030575940e+00   1.027876181600000e+01  1.00680300e-02   7.90743570e-01  -1.78376400e-01
