72
Lattice="7.395 0 0 3.6975 6.40425786098592 0 0 0 13.6 " PBC="1 1 1" Properties=species:S:1:pos:R:3:force:R:3 Energy="-575.34354125"
C     3.732739245599999e+00   6.239136111084677e+00   1.315543572000000e+01 -8.94598890e-01   4.95204059e+00   1.21727295e+00
C     1.278951865050000e+00   6.263546068003224e-01   1.325664501600000e+01 -2.56958763e+00  -5.59267070e-01  -3.87066890e-01
C     1.333675012950000e+00   9.087846839591521e-01   3.837736808000000e+00 -1.03142840e-01  -4.55813530e-01  -9.04831770e-01
C     2.575542690825000e+00   1.632920076149162e+00   3.796764224000000e+00 -2.07567755e+00   1.19814170e+00  -9.50140200e-02
C     6.157296742424999e+00   6.318698960310337e+00   1.324120616000000e+01  9.57047380e-01  -5.46530700e-01  -1.59746630e-01
C     3.715881492675000e+00   6.589900003865178e-01   1.323299869600000e+01 -9.70568060e-01  -3.27756793e+00   8.25319900e-01
C     3.741624116250000e+00   8.641578939133140e-01   3.692329960000000e+00  1.89730936e+00   2.91837910e+00  -4.53634660e-01
C     4.994350981875000e+00   1.545693187499861e+00   3.552489048000000e+00  3.64178910e-01   1.80913165e+00   2.24949641e+00
C     8.607123952575000e+00   6.288978464689121e+00   1.328033784800000e+01 -7.23976620e-01  -9.46795450e-01   1.73692470e-01
C     6.133955127450000e+00   5.301501013977168e-01   1.319818691200000e+01  1.97802891e+00   1.78177834e+00  -6.37509900e-01
C     6.266922403950000e+00   8.720802170564484e-01   3.690298936000000e+00 -1.70721539e+00  -3.54307100e-02  -3.10321380e-01
C     7.463315010000000e+00   1.565922252759665e+00   3.802392584000000e+00  2.53142105e+00   2.80610558e+00  -4.92950440e-01
C     1.229086122900000e+00   2.049659544679547e+00   1.328131895200000e+01 -1.90917695e+00   7.12871000e-03  -8.15135550e-01
C     2.406818925450000e+00   2.774111755505891e+00   1.340532579200000e+01  3.03840770e+00  -1.10333327e+00  -2.63602410e-01
C     2.530254971325000e+00   3.097509037641619e+00   3.764082744000000e+00  2.25978665e+00  -2.58204252e+00  -6.78647760e-01
C     3.826737756150000e+00   3.739068825580889e+00   3.595717600000000e+00 -2.86973314e+00   1.66545883e+00   1.64244671e+00
C     3.709679491050000e+00   2.010802734795254e+00   1.334276280000000e+01 -1.25021642e+00   3.03596347e+00  -9.09377020e-01
C     4.924006746900000e+00   2.724710847395738e+00   1.307380920000000e+01 -5.54246190e-01  -8.44026230e-01   1.01519516e+00
C     4.985970783000000e+00   3.027518888809615e+00   3.752655480000000e+00  1.26687586e+00  -3.46328701e+00  -2.09000713e+00
C     6.217002715275000e+00   3.688852847572893e+00   3.743232448000000e+00  3.00892212e+00   1.28130068e+00  -2.62689460e-01
C     6.137417392500000e+00   1.973983503591700e+00   1.298731728000000e+01  2.00113520e-01   4.45884490e-01   1.01422017e+00
C     7.360219577175000e+00   2.745772722347655e+00   1.296838757600000e+01  1.22452396e+00  -2.15388819e+00   1.36143101e+00
C     7.544401517774999e+00   3.054335117533900e+00   3.755354672000000e+00 -6.23938035e+00  -4.31785749e+00   4.83682640e-01
C     8.672261737800000e+00   3.744947421955740e+00   3.786117056000000e+00  3.40133085e+00   2.02599482e+00  -5.81663570e-01
C     2.447791070850000e+00   4.171278355355311e+00   1.339973932000000e+01 -1.49577117e+00   1.13308982e+00  -4.67069300e-02
C     3.693401764950000e+00   4.915047601079616e+00   1.327143542400000e+01 -7.66939810e-01  -4.74540081e+00  -8.12777300e-02
C     3.862139432925000e+00   5.187250270563761e+00   3.667257408000000e+00 -2.27501972e+00  -1.16681607e+00  -3.07664530e-01
C     5.042253499425000e+00   5.892041665930220e+00   3.661463264000000e+00  2.00806314e+00  -5.43832090e-01   7.20083270e-01
C     4.874979449849999e+00   4.141062938686674e+00   1.307651138400000e+01  1.49388735e+00   1.26904132e+00   9.60835530e-01
C     6.084548134125000e+00   4.891978631714374e+00   1.308301272800000e+01  2.37033892e+00  -8.91059510e-01  -6.58221320e-01
C     6.286992988574999e+00   5.096862240234765e+00   3.681227192000000e+00 -1.97186722e+00   2.57852872e+00   4.55653040e-01
C     7.464646701600000e+00   5.914334951583458e+00   3.743730616000000e+00  6.80765580e-01  -4.92688395e+00  -6.71605790e-01
C     7.402610934000000e+00   4.141804423661705e+00   1.296002126400000e+01 -3.43755103e+00   1.19597261e+00   2.32677894e+00
C     8.530466088450000e+00   4.835855366256315e+00   1.337987815200000e+01  3.35276671e+00   1.20906799e+00  -1.76439169e+00
C     8.690896915950001e+00   5.153058514232430e+00   3.719671944000000e+00  1.51248484e+00   2.37517049e+00   4.94691700e-01
C     9.998223802725001e+00   5.867802574611377e+00   3.742589440000000e+00 -1.71384278e+00  -1.20122123e+00  -8.86869110e-01
C     7.413047608424999e+00   1.054432237488630e-01   6.553738408000000e+00  2.98712767e+00  -3.56878200e-01   2.19436252e+00
C     1.285422305175000e+00   8.443737964896234e-01   6.866555544000000e+00 -1.65697307e+00  -1.71250449e+00  -7.47818010e-01
C     1.103861411400000e+00   5.232304288651440e-01   1.024601179200000e+01  1.84363648e+00   5.90948920e-01  -1.36741206e+00
C     2.336685263100000e+00   1.200226576608259e+00   1.009854998400000e+01  1.14367584e+00   1.81732679e+00   8.58619840e-01
C     2.502041530350000e+00   1.613907563712444e-01   7.069551184000000e+00 -8.43715760e-01  -3.30449567e+00  -7.53926460e-01
C     3.761459872650000e+00   7.609281738086029e-01   7.153630328000000e+00  1.01979139e+00   1.26429394e+00  -5.19449860e-01
C     3.597892973550000e+00   4.870477808928732e-01   9.884552623999999e+00 -2.10150645e+00   3.91218178e+00   1.94656544e+00
C     4.804554461475000e+00   1.242662405997613e+00   1.009556628000000e+01  1.67044879e+00   7.61378900e-02  -3.18871950e-01
C     5.048582695049999e+00   7.707870164434441e-02   6.985408935999999e+00 -8.20916740e-01   1.34767837e+00  -1.16888164e+00
C     6.276098341800000e+00   8.815764506112564e-01   6.695610887999999e+00 -3.94195440e+00  -2.65984348e+00   1.54937023e+00
C     6.069111219524999e+00   5.962889857230306e-01   1.006694032000000e+01 -1.89239000e-03  -2.00714010e+00   2.59331700e-01
C     7.323550730175000e+00   1.288789841745206e+00   1.023050860800000e+01 -2.39728612e+00  -7.63306030e-01   1.69299300e-02
C     8.638752774299999e+00   2.214277790841917e+00   6.911290840000000e+00  4.77830300e-01   3.20746405e+00   8.99144750e-01
C     2.520146302125000e+00   2.915958061782566e+00   7.155339576000000e+00 -2.45391012e+00  -1.20077620e-01  -2.30263457e+00
C     2.358460838925000e+00   2.700946631797214e+00   1.028208402400000e+01  1.43714109e+00  -3.60652740e+00  -8.33150050e-01
C     3.568112975775000e+00   3.394779701539426e+00   1.035208608000000e+01  2.07374686e+00  -8.72476020e-01  -8.68142160e-01
C     3.696420145125000e+00   2.183207597876706e+00   7.198857264000001e+00  3.57839817e+00   1.87753641e+00  -5.62544060e-01
C     4.998906080025000e+00   3.006257201012466e+00   7.097409968000000e+00 -3.26762065e+00  -4.04907561e+00  -3.69934090e-01
C     4.874828443949999e+00   2.661111827695121e+00   1.030432927200000e+01 -5.19614897e+00  -1.16809983e+00  -6.57382520e-01
C     6.031186701524999e+00   3.334464913354575e+00   1.021583298400000e+01  3.08716513e+00   2.26642174e+00   4.88633900e-02
C     6.172546452599999e+00   2.260163017557245e+00   6.876541343999999e+00  2.36505754e+00   2.35935495e+00  -6.78874000e-02
C     7.419723629549999e+00   3.024539628053144e+00   6.828411215999999e+00 -2.67940590e-01  -1.61813168e+00   5.88948800e-01
C     7.294213951724999e+00   2.684985171847579e+00   1.028915289600000e+01  1.65519596e+00   4.48368850e-01  -1.70520757e+00
C     8.595526152224998e+00   3.395246700022577e+00   1.016499795200000e+01 -4.26608506e+00   1.51776886e+00   2.20594180e-01
C     9.860797932824999e+00   4.310770072187179e+00   6.798697120000000e+00  2.28848495e+00   4.31230980e-01   1.40192108e+00
C     3.709422182025000e+00   5.055002089584447e+00   6.715850272000000e+00 -1.49626959e+00   8.86100220e-01   4.67400650e-01
C     3.536122871325000e+00   4.786434284733902e+00   1.025795259200000e+01  2.73087733e+00   9.02944960e-01  -5.34382630e-01
C     4.810127629275000e+00   5.533442163658009e+00   1.018357976800000e+01 -7.95698910e-01  -2.64761099e+00   3.68992010e-01
C     4.916333473049999e+00   4.376552239349691e+00   6.982001864000000e+00  8.34084770e-01   1.11550159e+00  -4.58230390e-01
C     6.127646674799999e+00   5.096561304157924e+00   7.012872775999999e+00  1.89390841e+00   2.16839715e+00  -2.56612320e-01
C     6.027007232399999e+00   4.763100179093256e+00   1.012287317600000e+01 -1.05460680e-01   2.31779172e+00  -6.62110340e-01
C     7.223934164175001e+00   5.548862719988788e+00   9.872764960000000e+00  2.63396512e+00  -5.02807957e+00   1.33002543e+00
C     7.396631004225000e+00   4.455466721509604e+00   6.946763992000000e+00  3.05997000e-03  -2.25654763e+00  -2.29472100e-02
C     8.683250633849999e+00   5.065454414795175e+00   6.895382648000000e+00 -8.43262300e-01   1.38685774e+00  -7.52489100e-02
C     8.570857837275000e+00   4.828870818591620e+00   9.979331567999999e+00 -3.42005534e+00  -1.18610749e+00   1.95363230e-01
C     9.760048157025000e+00   5.492015068924185e+00   1.002952930400000e+01  1.82073980e-01   3.46452339e+00   4.53447310e-01
