72
Lattice="7.395 0 0 3.6975 6.40425786098592 0 0 0 13.6 " PBC="1 1 1" Properties=species:S:1:pos:R:3:force:R:3 Energy="-573.93481471"
C     3.695984025000000e+00   6.309882410642211e+00   1.350810017600000e+01 -3.72792565e+00  -3.57833168e+00   1.92432390e-01
C     1.135112940225000e+00   5.522007937632186e-01   1.352334808800000e+01  5.25991407e+00   1.68285718e+00   1.34634160e-01
C     1.313220960600000e+00   9.168429054540757e-01   3.675189880000000e+00  1.09052651e+00  -2.60741440e-01   3.29802840e-01
C     2.595687595200000e+00   1.563204669979352e+00   3.781462048000000e+00 -8.16762160e-01   2.07874952e+00   2.84656640e-01
C     6.073065621825000e+00   6.261784192623360e+00   1.342315104000000e+01  2.74819531e+00  -6.87905660e-01  -6.46266770e-01
C     3.640794326550000e+00   6.174120853800901e-01   1.342588532000000e+01  1.03035411e+00  -2.27730131e+00   9.61064090e-01
C     3.827666642100000e+00   9.006183585915517e-01   3.713715144000000e+00 -6.96203990e-01   8.24809350e-01  -8.48689720e-01
C     4.984056846074999e+00   1.673426494773033e+00   3.517811224000000e+00  3.19790362e+00  -1.43727138e+00   9.07685840e-01
C     8.635634006999998e+00   6.213419813647847e+00   1.332057100000000e+01 -9.02746960e-01   4.13287687e+00   1.13941429e+00
C     6.182837408549999e+00   5.882989695743160e-01   1.335734499200000e+01 -2.87216044e+00  -1.81344210e-01   7.05706600e-02
C     6.295206134399999e+00   9.619461722846977e-01   3.465735464000000e+00 -9.21295670e-01  -1.23818364e+00   4.03324670e-01
C     7.533185743124999e+00   1.717882291134009e+00   3.687238392000000e+00 -2.05423541e+00  -6.96481808e+00  -1.19687008e+00
C     1.207635150600000e+00   1.954329348559988e+00   1.357820028800000e+01  5.95465990e-01   2.20276726e+00  -9.00930800e-02
C     2.471063468625000e+00   2.657601205664005e+00   8.557732000000000e-02 -2.17041694e+00   3.08834224e+00   2.73571830e-01
C     2.644566585525000e+00   3.026340825576268e+00   3.840916896000000e+00 -3.87786850e+00   1.17096836e+00  -1.67376017e+00
C     3.786604647450000e+00   3.802521187776512e+00   3.460158784000000e+00  4.15746330e-01  -4.78805508e+00   2.41004282e+00
C     3.717794505224999e+00   2.067039483702593e+00   1.281076480000000e-01 -1.85318511e+00  -4.48902116e+00  -2.84883704e+00
C     4.842635087924999e+00   2.690019430866168e+00   1.326850149600000e+01  3.21554256e+00   2.09712157e+00   1.54213251e+00
C     5.003430082200000e+00   3.075474355920767e+00   3.574924696000000e+00  2.47106764e+00   8.10765300e-01  -1.55009538e+00
C     6.344412131625000e+00   3.749581478900658e+00   3.547463576000000e+00 -5.66469070e+00   2.51021898e+00   2.85510460e-01
C     6.093890940150000e+00   2.004657977463741e+00   1.323708876000000e+01  2.92624646e+00   4.40456070e-01   7.86803280e-01
C     7.444432801874999e+00   2.760909954310709e+00   1.339401956800000e+01 -3.04263696e+00  -1.55829009e+00  -1.71465104e+00
C     7.467860864400000e+00   3.030467409128359e+00   3.745414160000000e+00  3.32024786e+00   4.51600254e+00   6.72713180e-01
C     8.693009112824999e+00   3.792189518783867e+00   3.869882040000000e+00  2.73993595e+00  -8.56076380e-01  -2.46228500e+00
C     2.422349497725000e+00   4.143685930578394e+00   4.549540000000000e-02  2.98485373e+00  -1.81706144e+00   2.10645270e-01
C     3.707585522850000e+00   4.869923456368371e+00   3.713738400000000e-02 -7.37056430e-01  -8.68938750e-01  -1.62300155e+00
C     3.783018516149999e+00   5.137756820927531e+00   3.443943640000000e+00  3.94156550e-01   3.06547964e+00  -3.67921880e-01
C     4.982879118375000e+00   5.881996075136182e+00   3.538821864000000e+00  2.10062023e+00   1.14539765e+00   1.42937190e-01
C     4.930750173450000e+00   4.127036589292017e+00   1.332782809600000e+01 -1.63931106e+00  -6.10457020e-01   4.26677320e-01
C     6.165282713849999e+00   4.766314604198348e+00   1.317778596000000e+01 -8.23132250e-01   4.56718258e+00   8.74636810e-01
C     6.286440840899999e+00   5.244206858054565e+00   3.572079576000000e+00 -6.79153390e-01  -2.59010816e+00   3.89271810e-01
C     7.526997385274999e+00   5.922008981649361e+00   3.677137672000000e+00 -1.25543117e+00  -1.49938490e-01  -1.37218780e+00
C     7.433593654575000e+00   4.184504876985834e+00   1.314782448000000e+01 -3.52703480e-01  -3.19323038e+00   2.48596986e+00
C     8.631495580125000e+00   4.833019753003643e+00   1.348377508000000e+01 -6.67610620e-01   1.04843801e+00  -1.73233277e+00
C     8.706232445099999e+00   5.210286706299074e+00   3.469888496000000e+00  1.35183790e+00  -2.97625137e+00   2.40179172e+00
C     9.975989884799999e+00   5.813643110783508e+00   3.385762976000000e+00 -1.13416857e+00   5.10721584e+00   5.29222950e-01
C     7.411097399024999e+00   1.178583899511018e-01   6.755101912000000e+00  9.40689400e-02   6.98879600e-01   3.21162730e-01
C     1.259617415700000e+00   8.312286089339234e-01   6.926438928000000e+00  1.84672320e-01   9.12790000e-04   1.84188430e-01
C     1.133549341425000e+00   5.444789238911023e-01   1.002100305600000e+01 -2.09131302e+00  -1.15442121e+00  -1.00817579e+00
C     2.403842142150000e+00   1.232930944051607e+00   1.016509954400000e+01 -3.94373623e+00  -7.62669560e-01  -5.85986370e-01
C     2.476169124525000e+00   5.173263435440100e-02   7.058162680000001e+00  6.56626470e-01   5.48800690e+00  -7.16678880e-01
C     3.708452401725000e+00   8.448926694614407e-01   7.101766592000001e+00 -1.76961390e-01   5.01575180e-01  -4.53452260e-01
C     3.545406961050000e+00   5.503792307000989e-01   9.951581583999999e+00  4.26155669e+00  -2.55701238e+00   1.08299099e+00
C     4.821316781925001e+00   1.187633436080091e+00   1.005357750400000e+01 -7.78607870e-01   1.36600947e+00  -1.68016045e+00
C     4.947919514700000e+00   1.486497415290888e-01   6.876361959999999e+00 -2.35134377e+00  -6.83715910e-01   1.42837000e-02
C     6.131474031000000e+00   8.035514558255183e-01   6.729500864000000e+00  3.55412017e+00   2.46383768e+00   1.44593466e+00
C     6.060671342999999e+00   4.576840024344588e-01   9.837787528000000e+00 -9.56713300e-01   3.03354160e+00   1.04136605e+00
C     7.224531199499999e+00   1.259118851037247e+00   9.885894808000000e+00  3.32237941e+00  -3.13816220e+00   1.40460840e+00
C     8.704416824699999e+00   2.304485861525047e+00   6.994763696000000e+00 -2.20558383e+00  -3.53200107e+00   4.89191450e-01
C     2.443440777225000e+00   3.029900824435485e+00   7.201992880000001e+00  4.03948558e+00   1.47017660e-01  -2.04228228e+00
C     2.355178974900000e+00   2.596990989064072e+00   1.025414595200000e+01 -1.01962666e+00   4.32296893e+00  -1.08414577e+00
C     3.583147935150000e+00   3.392802899265781e+00   1.024381770400000e+01 -6.37414530e-01  -1.83100729e+00  -1.32753101e+00
C     3.730314905775000e+00   2.318214733142108e+00   7.171587496000000e+00 -1.66090402e+00  -2.45484996e+00  -3.85491220e-01
C     4.963943074650000e+00   2.960037095653638e+00   7.050591696000000e+00  8.62279700e-01   1.57848115e+00  -6.08235090e-01
C     4.779675869700000e+00   2.652437260423751e+00   1.002119481600000e+01  2.22519966e+00  -4.35688100e-01   1.14201034e+00
C     6.090146740724999e+00   3.349820274340340e+00   9.909063904000000e+00 -3.91832262e+00   1.17065717e+00   7.91188430e-01
C     6.210840535725000e+00   2.238624537735386e+00   6.968767024000001e+00 -1.36457374e+00  -1.28875197e+00  -9.36003040e-01
C     7.444741875899999e+00   2.909257735081698e+00   7.006672672000001e+00 -7.92021260e-01   2.65188546e+00  -6.36955660e-01
C     7.254767431799999e+00   2.636642311178476e+00   1.000815255200000e+01 -5.40807930e-01  -1.40184470e-01  -1.10032581e+00
C     8.431463455349999e+00   3.319362456511702e+00   9.978309120000000e+00  5.07293803e+00   1.64928026e+00   1.89734940e+00
C     9.917253063675000e+00   4.417234070596348e+00   6.886301655999999e+00 -2.33829185e+00   1.13467910e-01   1.26846106e+00
C     3.736785271950000e+00   5.100906977371406e+00   6.855217768000000e+00  7.69655780e-01   5.34907260e-01  -5.52718520e-01
C     3.590537647725000e+00   4.812985313140204e+00   1.005435297600000e+01 -1.15030369e+00  -2.80959294e+00   5.03574000e-03
C     4.747953057525000e+00   5.464681184037076e+00   9.907794752000001e+00  5.84276568e+00   3.25576948e+00   8.81007310e-01
C     4.967088057225000e+00   4.406865961376479e+00   6.905761352000000e+00  2.34776150e-01  -9.59981500e-01   6.39923420e-01
C     6.210066020400000e+00   5.121021982798722e+00   6.937474920000001e+00 -9.35403260e-01  -3.92775051e+00   9.79133700e-02
C     6.068126057624999e+00   4.769284706866079e+00   9.898259928000000e+00 -8.61020040e-01   4.88563590e-01  -5.07755100e-02
C     7.304844153299999e+00   5.516257554499692e+00   9.849918184000000e+00 -1.40250903e+00  -4.32060280e-01   6.78491080e-01
C     7.402892350725001e+00   4.356613671226417e+00   6.998291536000000e+00  2.28964299e+00   1.18437655e+00  -6.50237460e-01
C     8.667357891449999e+00   5.147628215907778e+00   6.876729704000001e+00 -1.14425758e+00  -2.62778796e+00   2.91924310e-01
C     8.519796249675000e+00   4.783199109833345e+00   9.912661512000000e+00  2.46954090e-01  -7.55496480e-01   4.63549900e-02
C     9.806271417974999e+00   5.491195452003262e+00   9.908610615999999e+00 -3.45771418e+00  -1.17615108e+00   3.71424340e-01
