72
Lattice="7.395 0 0 3.6975 6.40425786098592 0 0 0 13.6 " PBC="1 1 1" Properties=species:S:1:pos:R:3:force:R:3 Energy="-573.93892065"
C     3.686824947750000e+00   6.233384575185768e+00   2.613429040000000e-01  8.14845030e-01  -5.74740883e+00   1.42532852e+00
C     1.221637065450000e+00   4.723380971845537e-01   3.173962560000000e-01  8.98185120e-01  -1.14051249e+00  -9.67403930e-01
C     1.460723257500000e+00   1.163054855052090e+00   3.396191728000000e+00  1.33277299e+00  -1.80462178e+00  -5.35410730e-01
C     2.674561001325000e+00   1.824106257958585e+00   3.291636832000000e+00  1.75289589e+00   2.06106299e+00   5.91081740e-01
C     6.146546076300000e+00   6.167894378139094e+00   3.087235360000000e-01  8.25189650e-01  -8.02337360e-01  -2.00141180e-01
C     3.730879366124999e+00   4.439993201966322e-01   1.832940000000000e-01 -3.65379877e+00   5.49188070e-01   1.52846846e+00
C     3.905448694125000e+00   1.119269776616792e+00   3.334100112000000e+00  2.74022600e-02  -9.07300340e-01  -4.40732670e-01
C     5.152406091674999e+00   1.802703356275622e+00   3.267228096000000e+00  5.85399950e-01  -1.10852298e+00   1.71555387e+00
C     8.571084789825001e+00   6.082517487457812e+00   3.500884800000000e-01  2.38510754e+00   2.67180663e+00   6.25935070e-01
C     6.160937744625000e+00   3.774642044375202e-01   4.190735280000000e-01 -2.80922468e+00   1.74048016e+00  -2.06913860e+00
C     6.426727614450000e+00   1.115435483393431e+00   3.413489568000000e+00 -6.60612980e-01  -8.39057680e-01  -4.19999380e-01
C     7.665983119500000e+00   1.858439932644095e+00   3.386392792000000e+00 -2.53624111e+00  -5.47092343e+00   6.44534100e-02
C     1.252558888200000e+00   1.825387429743478e+00   2.015692720000000e-01 -2.85277957e+00   4.14332560e+00   7.25169280e-01
C     2.439947194350000e+00   2.576523621369298e+00   2.835742800000000e-01 -8.93689930e-01   2.35929134e+00  -4.97479360e-01
C     2.716078638900000e+00   3.303671128158601e+00   3.295862216000000e+00 -2.25384086e+00  -1.07216864e+00   7.71709000e-03
C     3.919313542649999e+00   4.013709916245229e+00   3.273168304000000e+00  2.35687857e+00  -1.99546398e+00   1.44945668e+00
C     3.640876041300000e+00   1.889808756153318e+00   2.920876080000000e-01  2.61134828e+00  -8.51491940e-01  -1.51403259e+00
C     4.914464608650000e+00   2.543327278837145e+00   2.083507760000000e-01 -9.50216090e-01   1.27352166e+00   9.58246500e-01
C     5.113392179250000e+00   3.168102211393720e+00   3.431770279999999e+00  1.99258506e+00   4.69910737e+00  -1.34948663e+00
C     6.432777907649999e+00   3.916991661277095e+00   3.475760704000000e+00 -2.95723017e+00  -4.00357310e-01  -9.38394560e-01
C     6.107552500124999e+00   1.769582071645588e+00   1.934015200000000e-01  1.40678517e+00   3.17951611e+00   8.65607980e-01
C     7.333479405075000e+00   2.565660398974273e+00   2.022238400000000e-01  1.19290210e+00   2.59720300e-01  -8.59122780e-01
C     7.623764805674999e+00   3.156411046542554e+00   3.373045344000000e+00  1.39718531e+00   8.04035034e+00   4.89992530e-01
C     8.849479991774999e+00   3.971419463509298e+00   3.380365000000000e+00  4.81863360e-01   8.94547970e-01  -4.91371900e-02
C     2.365657172250000e+00   4.089263251752479e+00   2.894483919999999e-01  3.34378994e+00  -4.02177207e+00   8.52792400e-01
C     3.657125222700000e+00   4.719294799160542e+00   3.081337040000000e-01  4.81360890e-01   1.40977317e+00  -2.44819270e-01
C     3.986287987050000e+00   5.424383095921390e+00   3.383532712000000e+00 -1.53702277e+00  -1.63039913e+00  -8.34776400e-02
C     5.173831403325000e+00   6.145564203960582e+00   3.364145504000000e+00  1.81537186e+00  -1.44470860e+00   4.01873760e-01
C     4.927887236175000e+00   3.987587524817497e+00   3.388146240000000e-01 -1.22383890e+00  -2.06084870e-01  -9.39370470e-01
C     6.159296128575000e+00   4.726876095572631e+00   3.740924800000000e-01 -2.76696629e+00   1.90929519e+00  -1.27576247e+00
C     6.432077859974999e+00   5.349990788321580e+00   3.381583288000000e+00 -5.82484620e-01   6.77144210e-01   5.61545220e-01
C     7.666730051475000e+00   6.094508435619404e+00   3.411014912000000e+00 -3.21896576e+00   2.25259937e+00  -2.97745940e-01
C     7.348187283600000e+00   4.115173726287624e+00   1.782936880000000e-01 -8.14360000e-03  -6.82207801e+00   1.71956943e+00
C     8.540973606974999e+00   4.718043983557905e+00   4.821292480000000e-01  1.00380028e+00   5.57882390e-01  -2.68926768e+00
C     8.884479269625000e+00   5.527108224549312e+00   3.467223848000000e+00 -9.25735360e-01  -8.31070268e+00  -3.53772060e-01
C     1.010974805655000e+01   6.037856562717581e+00   3.473708600000000e+00  2.86396303e+00   5.81921279e+00  -6.41548240e-01
C     7.353491051550000e+00   2.467614349224024e-01   6.303717776000000e+00  6.04487000e-02  -5.62673000e-03   9.74730220e-01
C     1.181977421625000e+00   9.899539772264142e-01   6.356339304000000e+00 -8.16148200e-02  -1.80477449e+00   4.04523410e-01
C     1.111254821475000e+00   2.942335726928598e-01   1.042279180000000e+01 -2.00809420e+00   3.96493290e-01  -1.36758171e+00
C     2.351522997825000e+00   1.023271616402436e+00   1.018891885600000e+01 -3.19397057e+00  -2.77162772e+00   3.24315410e-01
C     2.439563430824999e+00   2.264441189892882e-01   6.526034120000000e+00 -1.40967148e+00   6.07814869e+00  -6.72150860e-01
C     3.692439268725000e+00   9.051417499606482e-01   6.507418440000000e+00 -1.13594434e+00   2.08694283e+00   4.28555710e-01
C     3.478040137949999e+00   2.611819023457644e-01   1.003585112800000e+01  4.39183877e+00   1.33272146e+00   1.37854034e+00
C     4.782328197375000e+00   1.029566361453029e+00   1.023297415200000e+01 -1.70096698e+00  -4.78439210e-01  -6.54597990e-01
C     4.932016604175000e+00   3.003815321533026e-01   6.566032536000000e+00  1.44020210e-01  -2.52499016e+00  -1.01197244e+00
C     6.152205321899999e+00   9.920826884964997e-01   6.397084088000000e+00 -3.86095800e-01   1.20878313e+00   5.53387950e-01
C     6.019526968050000e+00   3.515841501272101e-01   1.035331932800000e+01  1.16225750e-01  -3.16340980e-01  -6.89210130e-01
C     7.233824015324999e+00   1.114408560645580e+00   1.043050803200000e+01  2.40959209e+00  -2.90597136e+00   3.29597480e-01
C     8.545424657474999e+00   2.391851146186702e+00   6.314885552000000e+00 -4.65804630e-01  -8.22062200e-02   7.20963740e-01
C     2.393876011575000e+00   2.974588530150237e+00   6.461519528000000e+00  1.29018359e+00   4.33319828e+00  -1.36784036e+00
C     2.329475027175000e+00   2.369653988443942e+00   1.017985037600000e+01 -7.16011990e-01   6.19647589e+00   1.14520148e+00
C     3.534561527999999e+00   3.197174980374976e+00   1.033873455200000e+01  2.41393510e-01  -4.70720229e+00  -1.20197941e+00
C     3.668261353200000e+00   2.333583735197115e+00   6.471428351999999e+00 -1.97353583e+00  -1.42815461e+00   6.95650190e-01
C     4.858960770600000e+00   3.025713400433724e+00   6.564408016000000e+00 -4.20425660e-01   5.22591387e+00  -2.43871780e-01
C     4.786422550050000e+00   2.469863652669613e+00   1.030823464800000e+01  2.04717430e-01  -1.01599618e+00   4.71773240e-01
C     6.057015255000000e+00   3.152438933690046e+00   1.037680462400000e+01 -2.86133963e+00   1.06692905e+00   8.62779200e-02
C     6.082424881725000e+00   2.471133681045830e+00   6.452613296000000e+00  3.12344248e+00  -4.01541112e+00  -6.23262100e-01
C     7.325810568225000e+00   3.185858592693777e+00   6.308008576000000e+00 -1.01111516e+00  -2.39025625e+00   1.05880629e+00
C     7.287693521400000e+00   2.546225333603952e+00   1.043671738400000e+01 -2.27278493e+00  -4.14829037e+00  -7.40898960e-01
C     8.448838673399999e+00   3.180069976141859e+00   1.025188372800000e+01  4.80718136e+00   1.65693730e-01   2.36432320e-01
C     9.805864729949999e+00   4.452239936186843e+00   6.307993480000000e+00 -1.67591980e+00   8.48580690e-01   2.17438967e+00
C     3.628971829125000e+00   5.193891485964581e+00   6.401335720000000e+00 -5.21315890e-01   8.31315260e-01  -1.11757740e-01
C     3.581155130550000e+00   4.547035632945406e+00   1.039503229600000e+01 -4.06582872e+00   1.99242457e+00  -7.37583800e-01
C     4.770937826775000e+00   5.186254664636846e+00   1.036024118400000e+01  7.55208030e-01   5.81694873e+00   5.46282030e-01
C     4.849775958750000e+00   4.543858096365588e+00   6.570019512000000e+00 -7.13396040e-01  -1.60421639e+00  -3.05149300e-01
C     6.022614935175000e+00   5.335136752641096e+00   6.579990760000000e+00  1.42337887e+00  -7.53494611e+00  -2.18963320e-01
C     5.981615095500000e+00   4.560074445778051e+00   1.031178724000000e+01  1.15185974e+00  -1.46298226e+00  -4.63287440e-01
C     7.160078708924999e+00   5.269007923000622e+00   1.011769361600000e+01  3.00175499e+00   4.33038810e-01   8.12655470e-01
C     7.238060167125000e+00   4.541932912410294e+00   6.439372064000001e+00  3.31704026e+00   3.58594012e+00   6.97209890e-01
C     8.554054289700000e+00   5.277123718773708e+00   6.464048720000000e+00  5.97454120e-01  -2.76561251e+00  -5.62998270e-01
C     8.468637380850000e+00   4.596855123349289e+00   1.023362668000000e+01  1.26296020e-01   7.54294580e-01  -8.84771620e-01
C     9.729051977550000e+00   5.315593071057470e+00   1.024052310400000e+01 -3.24095060e-01  -2.95754060e-01   1.23399583e+00
