76
Lattice="10.7446858958278 0 0 5.37234294791388 9.3051709414712 0 0 0 30 " PBC="1 1 1" Properties=species:S:1:pos:R:3:force:R:3 Energy="-612.34288794"
C     9.311887407577950e-02   3.241149226307980e-02  -2.370330000000003e-01 -9.39062140e-01   9.38856070e-01   1.24161362e+00
C     1.251238776362319e+01   8.507899427378749e+00  -1.908578999999975e-01  5.72331180e-01   1.84778070e-01   5.61100360e-01
C     1.392500198751808e+01   8.302297115925688e+00  -1.571342999999992e-01  4.66049020e-01   1.25924396e+00  -3.38884290e-01
C     1.452283711684553e+01   7.013731467169445e+00  -5.359740000000102e-02 -9.89089780e-01   8.34920970e-01  -4.27055050e-01
C     8.304249743130789e+00   9.054658151522123e+00  -9.717210000000165e-02  6.76748010e-01  -1.69698155e+00   9.11422020e-01
C     9.733824131378256e+00   8.811371944899669e+00  -5.758829999999904e-02 -4.34820180e-01   1.43957747e+00   7.65499300e-02
C     1.030820162361911e+01   7.514037196101280e+00  -9.009299999998888e-03 -1.56109320e+00  -6.37149800e-02  -2.09648560e-01
C     1.169708438210725e+01   7.341321778094624e+00  -1.039829999999995e-01  1.62718120e-01   9.16483780e-01   5.22613900e-01
C     1.226461928230297e+01   6.050458124323038e+00   4.748490000000000e-02 -8.07072090e-01   3.86216380e-01  -2.73946210e-01
C     1.365054612397659e+01   5.896771501733554e+00   2.523000000000000e-03  1.67857664e+00  -1.02364419e+00   1.03138294e+00
C     6.016647825099782e+00   8.066687117018478e+00  -1.056656999999994e-01  1.83949534e+00  -1.42944174e+00   1.83804080e-01
C     7.475273748807098e+00   7.880103365294556e+00  -2.242349999999860e-02 -1.91233410e+00   1.62877034e+00  -3.31681330e-01
C     8.008110512485375e+00   6.597613062645038e+00   1.171725000000000e-01  8.27002770e-01  -9.21641510e-01  -2.44065540e-01
C     9.417899797286871e+00   6.397518947129910e+00   1.000056000000000e-01  5.63618350e-01   4.22838110e-01  -5.59966400e-02
C     9.983242566665277e+00   5.103264302964370e+00   1.362039000000000e-01  1.17588410e-01  -7.68468770e-01  -4.68250930e-01
C     1.139494354598210e+01   4.936909248450332e+00   1.689093000000000e-01  4.63331890e-01  -3.99785990e-01  -3.86792480e-01
C     1.197875567829459e+01   3.629542687913238e+00   1.614357000000000e-01 -1.05575519e+00  -2.01921110e-01   9.11753300e-02
C     5.182173345213624e+00   6.918725578820336e+00   3.430500000000000e-03  4.57497390e-01  -7.22830550e-01  -5.01561800e-02
C     5.758933364105942e+00   5.614670077258822e+00   1.172856000000000e-01  3.91970770e-01  -4.87621510e-01  -2.34149360e-01
C     7.187708723786455e+00   5.438208490483431e+00   1.508643000000000e-01 -9.98675400e-01  -1.68959800e-02  -8.25610970e-01
C     7.748392704805481e+00   4.129393114830979e+00  -1.533000000000229e-02 -6.63056120e-01   1.27528630e-01   5.38408990e-01
C     9.152144443152906e+00   3.942370531245526e+00  -3.931200000000246e-03 -3.12025650e-01   6.39407290e-01   5.11707050e-01
C     9.685209477683129e+00   2.636062061696018e+00  -4.188299999999856e-02  1.26146335e+00   4.70365230e-01  -3.77608720e-01
C     1.111997430134831e+01   2.494402465598194e+00  -3.036899999997900e-03 -5.86874430e-01  -8.54238200e-02   5.03691170e-01
C     3.503127980165086e+00   4.600788794272747e+00   1.876692000000000e-01 -1.00194837e+00  -6.06631200e-02  -4.65467610e-01
C     4.910302384482527e+00   4.460346500637292e+00   1.092213000000000e-01  2.47166040e-01  -3.81503370e-01   2.81539190e-01
C     5.484356730294937e+00   3.135844653917607e+00   3.195030000000000e-02 -2.74719780e-01   8.17895080e-01   2.74719960e-01
C     6.880838130651557e+00   2.992738289842030e+00  -7.851059999999777e-02  8.30759570e-01  -1.39583510e-01   6.53222900e-02
C     7.455724921004068e+00   1.682562591249860e+00  -1.676850000000023e-01 -1.03517419e+00   3.49921890e-01   6.44390360e-01
C     8.842627971115132e+00   1.513865332158514e+00  -1.366407000000009e-01  9.21070540e-01  -1.96558690e+00  -4.06980510e-01
C     9.404678461286920e+00   1.462187576515874e-01  -1.888448999999994e-01  4.40726000e-03   1.67899981e+00  -1.51086700e-01
C     2.627406531428861e+00   3.446177501765752e+00   2.628393000000000e-01  1.31260716e+00   1.03394364e+00  -1.01966940e+00
C     3.219854114075755e+00   2.166645592113189e+00   1.341534000000000e-01  3.83671410e-01  -1.41861140e-01   2.28624690e-01
C     4.654572574421277e+00   1.997916044078682e+00   7.334640000000001e-02 -1.11663197e+00  -8.74734770e-01  -3.10647590e-01
C     5.207398805471343e+00   6.589244643263568e-01  -2.988509999999778e-02 -9.37765690e-01   1.31610112e+00  -1.00172840e-01
C     6.595932307944304e+00   5.537518392599128e-01  -1.109358000000000e-01  9.53107770e-01  -1.98120159e+00  -7.02816640e-01
C     9.146755553386621e-01   1.196533879142976e+00  -4.940819999999846e-02  1.47992766e+00  -4.01976070e-01  -5.39845410e-01
C     2.368742347648319e+00   1.047697204699129e+00   2.127990000000000e-02 -9.71902510e-01  -6.92400970e-01  -5.19343410e-01
C     1.598801563352553e+01   9.255197054208184e+00   3.157387200000000e+00  1.00592891e+00   6.48758940e-01   3.33525520e-01
C     1.177969291188251e+01   8.811357614936423e+00   3.224404800000000e+00 -1.09675763e+00  -7.86713220e-01   1.05840589e+00
C     1.317028445149275e+01   8.959132476324305e+00   3.154277100000000e+00  1.48672013e+00  -1.20508754e+00   5.75952200e-01
C     1.402660174962159e+01   7.790823786090212e+00   3.247025400000000e+00 -2.30281150e-01  -5.88225680e-01   2.04269480e-01
C     7.574889397212312e+00   8.287095258161010e+00   3.442612500000000e+00 -1.49694091e+00   9.60084190e-01  -1.51309730e+00
C     8.976368903109037e+00   8.479428768060469e+00   3.377414400000000e+00 -1.03275665e+00  -1.64786830e+00   9.17334000e-02
C     9.780202063809579e+00   7.305667805965792e+00   3.439524600000000e+00  9.87040440e-01   2.41303330e-01   1.76824350e-01
C     1.119798039864173e+01   7.514844233576906e+00   3.452286300000000e+00  9.08914350e-01  -1.53114051e+00  -1.24312869e+00
C     1.207739087411143e+01   6.334783577704139e+00   3.469313700000000e+00 -1.40664836e+00   8.71286220e-01   2.93045010e-01
C     1.347711690099271e+01   6.453171778746410e+00   3.443046600000000e+00  3.45196800e-02   1.86472020e+00  -1.95109500e-01
C     4.699917244133027e+00   7.949459922154393e+00   3.233114100000000e+00 -5.23377700e-01   7.65099960e-01   1.74230260e-01
C     5.567554122580944e+00   6.857531890115904e+00   3.396246000000000e+00  2.51879350e-01  -1.26813570e+00   4.23116080e-01
C     7.011560772929291e+00   6.988122985380600e+00   3.452767800000000e+00 -1.26465647e+00  -1.33304170e-01   2.90026700e-02
C     7.807296684612165e+00   5.809106555790720e+00   3.498186600000000e+00  6.53143000e-01   9.63874600e-01   4.58320730e-01
C     9.226399355704920e+00   5.980122570428604e+00   3.482804100000000e+00  2.80949230e-01   4.41196690e-01   1.25106100e-01
C     1.010854773831223e+01   4.855799795434729e+00   3.482955900000000e+00 -1.31564449e+00  -2.49801090e-01   5.66318830e-01
C     1.150297196110644e+01   5.039051086289909e+00   3.520134300000000e+00  3.33852100e-01  -2.44374320e-01  -1.68470520e-01
C     1.234243450025138e+01   3.886866954570904e+00   3.521521200000000e+00 -2.56346200e-01  -1.77202730e-01   4.34184000e-01
C     3.563928665650268e+00   5.320838089038578e+00   3.588149700000000e+00  6.34412600e-01   8.77072110e-01  -3.36713640e-01
C     4.977366308549108e+00   5.555900478635969e+00   3.545078700000000e+00  1.94680890e-01  -9.42945290e-01  -4.92964850e-01
C     5.814752383420448e+00   4.400270921273012e+00   3.500109600000000e+00  2.64921980e-01  -7.66185870e-01   1.03839144e+00
C     7.219491934466091e+00   4.527929398864256e+00   3.573308100000000e+00  5.63770470e-01   4.98617360e-01  -1.10563964e+00
C     8.087974742034914e+00   3.419435557104705e+00   3.466301700000000e+00  6.89181150e-01  -1.70277730e+00   1.86781900e-02
C     9.513731919446117e+00   3.541564995175110e+00   3.489601800000000e+00  5.23814250e-01   7.30890380e-01  -9.24253700e-01
C     1.039070351238681e+01   2.409571781671974e+00   3.303897300000000e+00 -2.15217577e+00   3.84965840e-01   8.86636460e-01
C     1.176507659331216e+01   2.594229176907898e+00   3.423645300000000e+00  1.29566141e+00  -1.01360535e+00  -6.46712060e-01
C     2.997553117063154e+00   4.016688698302280e+00   3.631415100000000e+00  9.83688700e-01   2.00107720e-01  -2.95577930e-01
C     3.872254089256027e+00   2.885337820749132e+00   3.583517700000000e+00  8.47670700e-02  -3.02200010e-01  -6.53716020e-01
C     5.307481579096061e+00   3.059509311904479e+00   3.511876800000000e+00 -1.53179271e+00   7.92060080e-01  -9.56767900e-02
C     6.152791644924932e+00   1.932866292536715e+00   3.358366800000000e+00 -5.10713730e-01  -1.14657590e-01   3.10808800e-02
C     7.558200751072433e+00   2.088822818525303e+00   3.309794700000000e+00 -3.18368900e-02   4.24167960e-01   4.50702260e-01
C     8.398357987884241e+00   9.358189942981932e-01   3.216091800000000e+00 -6.88396000e-01   1.05723291e+00  -4.32600990e-01
C     9.792828842615254e+00   1.117307513570500e+00   3.197752800000000e+00  8.63119790e-01  -7.16762070e-01  -1.01610530e-01
C     1.868213081598169e+00   1.424316740462296e+00   3.329658900000000e+00  6.89394200e-02   5.80545850e-01   2.61913360e-01
C     3.295898607787845e+00   1.588716964665259e+00   3.401636100000000e+00 -4.51520300e-01   8.82557700e-02   1.20681600e-02
C     4.137371961175544e+00   4.493159976284980e-01   3.274099200000000e+00  1.26129744e+00   1.41235136e+00   1.02771185e+00
C     5.562867344314793e+00   6.389513801621938e-01   3.302479200000000e+00 -3.25132300e-01  -1.40751800e-02  -5.95478560e-01
C     1.291162633845975e+00   1.193744561102002e-01   3.232976400000000e+00  9.94102370e-01  -4.39626910e-01   9.25591610e-01
