76
Lattice="10.7446858958278 0 0 5.37234294791388 9.3051709414712 0 0 0 30 " PBC="1 1 1" Properties=species:S:1:pos:R:3:force:R:3 Energy="-611.38291268"
C     6.230795002323450e-02   3.237296885538820e-02   5.830500000000000e-02  3.09814290e-01   4.21957390e-01  -3.13427350e-01
C     1.247764299516894e+01   8.440075339121019e+00   6.224970000000001e-02  2.35401298e+00   2.12823569e+00   6.15959890e-01
C     1.393017313622461e+01   8.304608985645732e+00   1.161144000000000e-01 -1.35744273e+00   1.92747901e+00  -1.87930230e-01
C     1.445601935353291e+01   7.005453214894383e+00  -1.467000000001661e-03  1.74081708e+00   1.68567706e+00   3.95079210e-01
C     8.287130933490904e+00   9.045565417634684e+00  -8.898449999999869e-02 -3.06787090e-01  -2.85558620e+00  -1.66192380e-01
C     9.718572264636926e+00   8.861283392994480e+00  -9.080369999999860e-02 -1.43746213e+00  -8.79691020e-01   5.31130590e-01
C     1.024044552688685e+01   7.521852050863530e+00  -6.401789999999963e-02  1.02987455e+00   6.22549840e-01  -6.14292840e-01
C     1.166248982436188e+01   7.330587705105078e+00  -3.147960000000083e-02 -1.29488560e+00  -9.30351380e-01  -2.58612930e-01
C     1.221561808853259e+01   6.022244380774412e+00  -1.868793000000011e-01  3.77225660e-01  -2.99537200e-02   1.68445380e-01
C     1.363047419114052e+01   5.912707351381979e+00  -1.388558999999994e-01 -1.99059290e-01  -3.01012743e+00  -1.27559138e+00
C     5.999256691395760e+00   7.995432398338591e+00   2.114010000000000e-02 -3.51131800e-02   1.42697154e+00  -1.95462400e-02
C     7.418257395419324e+00   7.835581100001356e+00  -8.215170000000072e-02  9.86682740e-01   1.73808013e+00  -1.66041920e-01
C     8.013167337733922e+00   6.564554674898210e+00  -2.277288000000013e-01 -7.83158470e-01  -3.65793200e-01   9.40009370e-01
C     9.436796906166638e+00   6.387584002220692e+00  -2.262455999999986e-01 -1.09142063e+00  -6.37337630e-01   7.47963000e-03
C     9.981070206070015e+00   5.064957705755672e+00  -3.317325000000011e-01 -4.29941310e-01  -4.44071500e-02   5.68139420e-01
C     1.138324865378453e+01   4.854164783848860e+00  -3.534131999999985e-01 -8.34896990e-01   3.06667524e+00  -2.64194560e-01
C     1.191210252356997e+01   3.603871954530804e+00  -5.298413999999987e-01  1.87449196e+00  -1.27670778e+00   1.00770061e+00
C     5.137736601460425e+00   6.884889464886342e+00  -1.731720000000081e-02  5.77746970e-01  -1.56228038e+00  -3.57851780e-01
C     5.746825123841802e+00   5.570431898834420e+00  -1.437726000000019e-01 -2.23824757e+00   1.04819108e+00   5.99524800e-02
C     7.121117136112037e+00   5.438236219892832e+00  -1.565552999999973e-01  2.53692638e+00  -1.14527073e+00  -3.93589530e-01
C     7.733705901095630e+00   4.127165270804524e+00  -1.333653000000012e-01 -2.55201286e+00  -1.42710116e+00   1.23241740e-01
C     9.107161278398262e+00   3.914603528953728e+00  -2.303816999999988e-01  2.68790670e-01   3.05078004e+00  -3.16616170e-01
C     9.645178968447231e+00   2.665800829710002e+00  -1.717452000000002e-01  1.70091587e+00  -3.03051152e+00  -2.69402600e-02
C     1.109128013414149e+01   2.467702487258086e+00  -3.453479999999978e-01 -1.55013742e+00   1.52104700e-01   5.13220080e-01
C     3.503519677689571e+00   4.576742650684727e+00  -3.752507999999999e-01 -2.53408489e+00   1.42612512e+00   6.56873150e-01
C     4.883360729269431e+00   4.432566657209597e+00  -2.738262000000020e-01  1.38029985e+00  -2.87490460e-01   8.24714220e-01
C     5.462500749812028e+00   3.129743067228830e+00  -1.142844000000025e-01 -3.67620150e-01   6.67421720e-01  -1.17838959e+00
C     6.855968480667416e+00   2.931410327520935e+00  -3.520439999999780e-02  7.13539800e-01   1.42922391e+00   2.15923720e-01
C     7.374403765769918e+00   1.606433637928181e+00   1.014372000000000e-01  2.29580206e+00   2.15176007e+00  -5.12747350e-01
C     8.815004458134824e+00   1.514645663793543e+00   5.076810000000000e-02 -2.61033400e-01  -2.56766890e-01   3.68182200e-02
C     9.392551364099027e+00   2.277339161201754e-01   1.269648000000000e-01  4.03334500e-02  -2.30272557e+00  -2.60210440e-01
C     2.596612798873756e+00   3.466105828057693e+00  -4.777568999999993e-01  1.27715157e+00  -1.28480346e+00   2.17886960e-01
C     3.194095072716243e+00   2.140061928409831e+00  -3.406503000000001e-01 -5.79753760e-01   8.31714840e-01   1.15076480e-01
C     4.614955090911373e+00   2.024376228163666e+00  -2.158842000000014e-01 -4.65370050e-01  -2.39869897e+00   9.80077670e-01
C     5.185272596138049e+00   6.759179397038224e-01  -1.861139999999750e-02 -9.10937810e-01   1.31374531e+00  -6.72747370e-01
C     6.568730792502717e+00   4.868518475282358e-01   9.768960000000000e-02 -3.91153980e-01  -1.61019286e+00  -1.24984060e-01
C     9.067032670180095e-01   1.198030988095513e+00  -1.401189000000009e-01  2.16327130e-01  -1.80792307e+00  -4.23882300e-02
C     2.333092124513274e+00   9.897459028087411e-01  -1.739063999999999e-01 -5.45083000e-02   2.07996552e+00  -4.57625470e-01
C     1.604984001895983e+01   9.295793281778378e+00   3.732377400000000e+00  6.09866910e-01  -1.19689486e+00   1.08225700e-01
C     1.183379906709427e+01   8.824790559705406e+00   3.579222600000000e+00 -1.39757516e+00  -2.15265305e+00   1.70099240e-01
C     1.322258904521966e+01   8.960084953621724e+00   3.619683900000000e+00 -3.00291070e-01   1.85741963e+00   3.87707500e-02
C     1.406747426616804e+01   7.883365106864153e+00   3.570307500000000e+00  1.30642920e+00  -3.96010033e+00   2.85188800e-01
C     7.586803534725668e+00   8.278478855973988e+00   3.562931700000000e+00 -2.62996859e+00   1.33744204e+00  -2.42062000e-02
C     8.960583831329917e+00   8.466929783298733e+00   3.494804100000000e+00  1.37614233e+00   3.80092650e-01   2.98434030e-01
C     9.822099892008040e+00   7.352917789068342e+00   3.487623900000000e+00  8.86552390e-01  -3.90167670e-01  -4.03811600e-02
C     1.123520826400748e+01   7.490827215173929e+00   3.585117000000000e+00  9.56675840e-01  -5.58270000e-04  -5.76093470e-01
C     1.208585118606566e+01   6.296841091834324e+00   3.544852200000000e+00  1.43014920e-01   1.96856522e+00  -3.69963830e-01
C     1.350953909814281e+01   6.512632937673523e+00   3.487016100000000e+00 -8.30550610e-01   1.59384199e+00   2.23898180e-01
C     4.773211098254716e+00   7.960122810586248e+00   3.648015300000000e+00 -2.62946279e+00   1.67604721e+00  -7.19417820e-01
C     5.538491090307182e+00   6.814929746846174e+00   3.434995800000000e+00  1.68662071e+00  -1.26715480e-01   7.80349310e-01
C     6.954783757419941e+00   7.017338709736046e+00   3.449901000000000e+00  1.57623532e+00  -1.55410295e+00  -2.08043550e-01
C     7.850993603017722e+00   5.875371841812580e+00   3.378100200000000e+00 -1.74083020e-01   9.22470260e-01  -1.86418100e-02
C     9.279264392248370e+00   6.062525069998030e+00   3.412533600000000e+00 -9.74313850e-01  -1.65537935e+00   6.46729290e-01
C     1.009706322706459e+01   4.881726514069722e+00   3.533601600000000e+00  6.64861620e-01   1.99149400e-02  -4.42470730e-01
C     1.152622480447977e+01   4.988633716051091e+00   3.510219300000000e+00 -9.60271640e-01   1.64726014e+00   6.09100070e-01
C     1.237054265228921e+01   3.879767946609069e+00   3.583147200000000e+00  3.46519330e-01   2.91708530e-01  -5.82797820e-01
C     3.585474984285539e+00   5.380190935775950e+00   3.389396100000000e+00  1.57274443e+00   2.38214460e-01   1.23081370e-01
C     5.015954666043509e+00   5.493480833660193e+00   3.383792700000000e+00  4.63855780e-01   2.53135560e-01  -8.56610130e-01
C     5.931600466518942e+00   4.348140841270977e+00   3.285316500000000e+00 -2.78645430e+00   2.52791373e+00   7.88069610e-01
C     7.307382605553219e+00   4.571034672726712e+00   3.357442800000000e+00  5.46117030e-01  -5.75490050e-01   1.83972960e-01
C     8.128350692922499e+00   3.430956475348938e+00   3.522611700000000e+00  7.22262530e-01  -9.13931200e-01  -5.60570830e-01
C     9.552660937206980e+00   3.567766402456253e+00   3.595947000000000e+00 -9.42150410e-01   5.92219040e-01  -2.58382590e-01
C     1.039161315749510e+01   2.428217297098128e+00   3.660007800000000e+00 -2.29623150e-01  -6.12732300e-01   8.65027540e-01
C     1.179566821832548e+01   2.600217798821463e+00   3.712804500000000e+00  1.35021727e+00  -1.38662706e+00  -9.24773400e-01
C     3.031632789460197e+00   4.110347290950987e+00   3.414032700000000e+00 -5.89696790e-01  -2.92640743e+00   1.05060074e+00
C     3.878922886006720e+00   2.947327380724061e+00   3.497853300000000e+00  3.02197710e-01  -2.04016500e-02  -5.10772050e-01
C     5.299805253148524e+00   3.107588757944622e+00   3.400750200000000e+00 -1.68637110e-01  -1.53767335e+00   1.75443610e-01
C     6.117303236759540e+00   1.952135998829523e+00   3.500959200000000e+00  1.41787449e+00  -1.17586840e-01  -3.13514600e-01
C     7.560154296139341e+00   2.113292161287673e+00   3.506449200000000e+00 -9.29886050e-01   5.54713760e-01   7.56692570e-01
C     8.380859407321219e+00   9.752699414290923e-01   3.653830800000000e+00  1.33527840e+00  -2.02056840e-01  -1.08848330e-01
C     9.808427494094007e+00   1.105964789349768e+00   3.749835300000000e+00 -2.43456300e-02   1.20614236e+00  -6.74134920e-01
C     1.946725307320911e+00   1.442294051563248e+00   3.650726400000000e+00 -1.79662708e+00   9.46313800e-02   7.67330490e-01
C     3.343571919551272e+00   1.601329565564173e+00   3.596302200000000e+00  3.42133890e-01   1.09788347e+00  -5.23719230e-01
C     4.186988556830847e+00   4.532816753797072e-01   3.527514300000000e+00 -4.11828150e-01   4.72440520e-01   4.09199630e-01
C     5.600221459739862e+00   6.332378191016149e-01   3.555410100000000e+00 -6.15220800e-01   3.29328950e-01  -2.48810540e-01
C     1.352522311615104e+00   1.375258669594394e-01   3.707478000000000e+00  7.17860280e-01   2.32072630e-01  -6.34320600e-01
