64
Lattice="7.10842262195238 0 0 0 7.10842262195238 0 0 0 7.10842262195238 " PBC="1 1 1" Properties=species:S:1:pos:R:3:force:R:3 Energy="-512.22776653"
C     7.103483119289814e+00   1.885722352633600e-03   3.766461701010580e-02 -2.35957700e-01   5.69908100e-01  -2.76498420e-01
C     1.807772385361847e+00   1.748185890581244e+00   7.105518118517468e+00 -1.04024882e+00   1.94918652e+00  -2.62597610e-01
C     1.983171718331180e-02   1.780262576569768e+00   1.826370435799458e+00 -8.46087990e-01  -3.32196600e-02  -1.50412186e+00
C     1.800914108133844e+00   3.845201698372320e-02   1.777578720525361e+00 -1.29686072e+00  -1.54369875e+00  -1.55397880e-01
C     8.890127424435140e-01   9.286978574991287e-01   9.076628976189294e-01  4.85639770e-01  -1.30225290e+00  -4.74546560e-01
C     2.676952557611334e+00   2.690071364809223e+00   8.646917009545412e-01  8.01663100e-01  -1.86648110e+00   7.43089230e-01
C     9.379125768256609e-01   2.655500546576020e+00   2.627065292243044e+00 -4.05506860e-01   9.74396480e-01   1.98560180e+00
C     2.659575449842935e+00   8.439378791889630e-01   2.699046032703878e+00  1.23170706e+00   1.90561199e+00  -1.63785141e+00
C     3.568106996706029e+00   7.060477091354588e+00   7.092104311780849e+00 -9.61854300e-02   9.89877400e-01  -4.27320790e-01
C     5.326826716599398e+00   1.751050655981331e+00   1.108629591815200e-02 -8.94531730e-01   1.26989472e+00   5.36698000e-02
C     3.569632108779149e+00   1.700625069768027e+00   1.777530169998866e+00 -8.43648700e-01   2.66700193e+00  -5.35673310e-01
C     5.331857915961382e+00   1.782038900298280e-02   1.789073821828389e+00  3.55401530e-01  -2.23450165e+00   7.08577200e-02
C     4.437153033020677e+00   8.225929209983056e-01   8.775685374464450e-01  4.81973920e-01   1.64051011e+00   3.19882840e-01
C     6.163082239126022e+00   2.686591649768281e+00   9.385772854248570e-01  5.32692470e-01  -1.48785662e+00  -3.39557540e-01
C     4.397520307039771e+00   2.742180580920074e+00   2.624370631396254e+00  8.87879110e-01  -4.09611308e+00   6.34381820e-01
C     6.237031301810334e+00   8.393451984184072e-01   2.685721863176498e+00 -9.74628620e-01   2.96702949e+00  -1.07572556e+00
C     7.062542159209924e+00   3.514699995877444e+00   5.608083399709700e-02  1.66517016e+00   5.29129140e-01  -1.07650199e+00
C     1.725108823050772e+00   5.337221434080851e+00   7.081287425079996e+00  2.06336610e-01   1.01114770e-01   1.32335661e+00
C     1.633828288671280e-02   5.250534646735307e+00   1.776537834201114e+00  1.86967750e-01   2.45302568e+00   5.36955030e-01
C     1.846478812791140e+00   3.556049334836853e+00   1.776939460079144e+00 -2.14907873e+00  -5.84152450e-01  -1.02455150e+00
C     9.180089934896608e-01   4.412528746222734e+00   8.987355718189238e-01 -1.18212991e+00   7.76094200e-02  -3.29461710e-01
C     2.626495481085824e+00   6.217404520451157e+00   8.599780348309929e-01  7.96372120e-01   2.69682630e-01   1.97548410e-01
C     9.406734170870426e-01   6.238255585438177e+00   2.665543112800877e+00 -1.67872397e+00  -1.56866558e+00  -1.07933450e-01
C     2.692816993046198e+00   4.435421421270445e+00   2.624151478726879e+00 -2.99159490e-01   2.84943400e-02   1.89922370e+00
C     3.564496273436199e+00   3.604068719993287e+00   1.303862419073500e-02 -7.39976350e-01  -1.06680836e+00  -3.84904140e-01
C     5.386095678141565e+00   5.395092239977890e+00   7.100076763170311e+00 -1.02785541e+00  -2.40356498e+00   7.36654850e-01
C     3.528790382279035e+00   5.329916890080765e+00   1.735859814673938e+00  6.25682860e-01   1.07147201e+00   9.23170330e-01
C     5.219949378896685e+00   3.601692871901004e+00   1.768872111247706e+00  3.27019088e+00  -4.47031590e-01  -5.30293290e-01
C     4.444431986699331e+00   4.507982209017070e+00   8.648938644938540e-01 -4.05003910e-01  -4.39742220e-01  -2.03922420e-01
C     6.249178174383391e+00   6.187347834918559e+00   9.301926876918885e-01 -2.12908680e-01   1.42520639e+00  -6.90354390e-01
C     4.414446598645610e+00   6.224652339238736e+00   2.676935284144368e+00  9.06674880e-01  -3.46848840e-01  -9.95793260e-01
C     6.184557352534852e+00   4.413421564103807e+00   2.642302480465918e+00  7.35309960e-01   6.00722080e-01   9.65331180e-01
C     7.103822759722598e+00   6.349243084184000e-03   3.545570951221164e+00  2.03376131e+00  -5.94365850e-01  -8.63616900e-02
C     1.854154345367763e+00   1.812679116243754e+00   3.540001146677263e+00 -2.22083985e+00  -1.35104701e+00   9.62573180e-01
C     7.078081242141470e+00   1.750084905684177e+00   5.310759833288317e+00  6.25204570e-01   2.01915512e+00   2.08832600e-01
C     1.731443138447454e+00   2.429744152587440e-02   5.423614145982603e+00  9.06279200e-01  -4.16904920e-01  -4.87563633e+00
C     8.979780983045366e-01   9.345987012844430e-01   4.400558233614881e+00 -4.40962760e-01  -1.12437818e+00   1.91108339e+00
C     2.720329929544230e+00   2.647764663491353e+00   4.483674104857267e+00 -1.26152885e+00   1.15126562e+00  -1.67982215e+00
C     8.539031768599410e-01   2.652391464690484e+00   6.232123504665035e+00  8.51807960e-01  -5.00089510e-01  -3.88423870e-01
C     2.683407716192557e+00   8.797032678434572e-01   6.178492375271242e+00 -1.16538830e-01  -1.78862060e-01   2.53093598e+00
C     3.536648956738123e+00   7.091357785237297e+00   3.537126998159318e+00  1.22457300e-01  -6.99204600e-02   1.81728274e+00
C     5.306595719317521e+00   1.814389047304995e+00   3.500450878398750e+00  6.22824580e-01  -6.61793400e-01   1.14091277e+00
C     3.571700233256212e+00   1.771583903393010e+00   5.336566606189097e+00  3.11850030e-01  -2.43569410e-01  -2.67565770e-01
C     5.397938523479164e+00   7.084005685889884e+00   5.306459664108574e+00 -2.35602951e+00   1.33355112e+00  -4.11949570e-01
C     4.441401879389103e+00   9.036783424035145e-01   4.389636426596156e+00  4.57857010e-01  -5.12613060e-01   1.19151148e+00
C     6.188919578244068e+00   2.664863831935310e+00   4.434710934429575e+00  1.17897880e-01   5.27357000e-01  -9.98792400e-02
C     4.420007233324331e+00   2.682159619348937e+00   6.243196721085566e+00  7.85133070e-01  -3.83272600e-02  -4.42605360e-01
C     6.199738526387481e+00   9.157315259664390e-01   6.217083290832960e+00  1.04128230e+00  -1.81646209e+00   1.61925210e-01
C     7.088580595603889e+00   3.534236073763990e+00   3.533568095290389e+00  9.72083540e-01   7.18068100e-02   5.74796590e-01
C     1.804595844545647e+00   5.299333186095120e+00   3.557553903568603e+00 -4.91269370e-01   1.35208924e+00  -3.53395610e-01
C     5.933613613592600e-03   5.324272589267806e+00   5.327979134074552e+00  8.08891900e-02  -3.64571180e-01  -2.73319180e-01
C     1.803790175925897e+00   3.553180730888552e+00   5.340859666946219e+00 -1.26069704e+00  -4.47605980e-01   5.07126990e-01
C     9.167949459903910e-01   4.433396871424042e+00   4.450358491890303e+00 -8.42180250e-01  -3.15777850e-01  -7.04351450e-01
C     2.635364802157251e+00   6.219141605686807e+00   4.456388708967301e+00  7.12916210e-01  -2.65376820e-01   1.01210439e+00
C     8.298688180552328e-01   6.241238634990661e+00   6.212501343780561e+00  9.48716000e-01  -4.04188670e-01   1.19387106e+00
C     2.626921275600762e+00   4.467478630180990e+00   6.262077971080357e+00  1.00091281e+00  -8.11448580e-01  -1.35274993e+00
C     3.567157666865127e+00   3.529430211399061e+00   3.537557768570090e+00 -6.65585520e-01   1.96892411e+00   1.27722441e+00
C     5.358170524215800e+00   5.343883376676088e+00   3.546777961382040e+00 -1.81335691e+00  -2.83650890e-01  -8.79849500e-02
C     3.518843993012226e+00   5.311234462666654e+00   5.374266409891171e+00  1.00771576e+00   1.60105745e+00  -1.30837715e+00
C     5.294608146495379e+00   3.616407875398214e+00   5.344677885072326e+00  9.79894170e-01  -2.42045207e+00   2.28473170e-01
C     4.409368696947014e+00   4.472224284206328e+00   4.466425090864480e+00  9.77880690e-01  -5.55797120e-01  -8.28985960e-01
C     6.252704520676721e+00   6.214759547478482e+00   4.388437804373971e+00 -1.53016170e-01  -4.01134140e-01   2.01834304e+00
C     4.500551206178575e+00   6.219208851364792e+00   6.208141321682358e+00 -1.32444591e+00  -1.04838380e-01  -3.68303020e-01
C     6.231546585085195e+00   4.412068049352733e+00   6.268870211062220e+00 -4.28937460e-01   1.80360081e+00  -1.55701935e+00
