64
Lattice="7.10842262195238 0 0 0 7.10842262195238 0 0 0 7.10842262195238 " PBC="1 1 1" Properties=species:S:1:pos:R:3:force:R:3 Energy="-511.67632971"
C     2.570306101475320e-02   2.976296550994000e-03   2.773208916740600e-03 -3.92803280e-01  -1.06099987e+00  -3.65958110e-01
C     1.757170083762210e+00   1.736899705819018e+00   1.257636346775640e-02  5.67768590e-01   7.91437890e-01   3.69978450e-01
C     7.076358018329930e+00   1.755206097676530e+00   1.737408171289027e+00  7.18603440e-01  -9.67546200e-02   2.48062320e+00
C     1.787125829693604e+00   7.104367691400648e+00   1.810488158223818e+00  2.58301220e-01  -4.40925400e-01  -1.53308366e+00
C     8.807283734694874e-01   8.471390862316537e-01   9.153481687345424e-01  5.66961000e-03   7.68534850e-01  -7.27149370e-01
C     2.645341828725551e+00   2.691528449277871e+00   9.058387342061851e-01  9.48377980e-01  -1.21148510e+00  -1.39743439e+00
C     9.567544461591375e-01   2.645435091230326e+00   2.682776630432353e+00 -3.34331888e+00   5.22611930e-01  -1.44345034e+00
C     2.697196918727737e+00   9.310621899467667e-01   2.587993918396440e+00 -5.87250830e-01  -2.32025449e+00   3.48167630e+00
C     3.543559623040835e+00   7.106339070245852e+00   7.086691958797982e+00 -3.58378100e-02   2.92112410e-01  -6.65850160e-01
C     5.309297701839609e+00   1.779468850100019e+00   7.051763089317409e+00 -8.25792200e-02  -9.98079410e-01   1.63234420e+00
C     3.550319306447097e+00   1.761941825698564e+00   1.778181799100442e+00  5.63220660e-01   1.77612121e+00  -2.02264650e+00
C     5.337437885549629e+00   7.079784775622353e+00   1.769250492583769e+00  4.50183960e-01   1.33876809e+00  -7.18337250e-01
C     4.418186268701766e+00   8.409272489567143e-01   8.572626884743791e-01  8.31766850e-01   1.77295164e+00   3.26218070e-01
C     6.133044248744914e+00   2.622425340462065e+00   9.624805649164524e-01  2.58094234e+00   1.38086950e+00  -3.54189454e+00
C     4.395320036986202e+00   2.706268900928060e+00   2.650594953041732e+00  1.05572597e+00  -1.48627503e+00   6.02290620e-01
C     6.185276369482866e+00   9.031029866766518e-01   2.652906612077756e+00  1.67312352e+00  -1.42148503e+00  -1.99632510e-01
C     7.916863524572600e-03   3.561141097959559e+00   1.096858043956480e-01 -1.13125038e+00  -2.44475210e-01  -2.47060411e+00
C     1.730637469827703e+00   5.328282734804653e+00   4.230933143424000e-02  1.88661647e+00   1.01671778e+00  -1.20102376e+00
C     7.102585112260230e+00   5.290729009187420e+00   1.802991828981444e+00  2.27640990e-01   1.30775632e+00   9.02008800e-02
C     1.783748333769938e+00   3.552652432919434e+00   1.789345718993604e+00  4.94683710e-01  -2.43960800e-01   1.62139550e-01
C     9.216103336416313e-01   4.454309068845594e+00   9.468438122581074e-01 -1.94530594e+00  -1.09589677e+00  -3.52661360e-01
C     2.661338409736921e+00   6.233683732345898e+00   8.536624145858016e-01 -1.81136490e-01  -7.15824330e-01   1.60442533e+00
C     9.330988241116230e-01   6.172698513246358e+00   2.684220706487606e+00 -1.18576163e+00   5.75207710e-01  -2.31023070e-01
C     2.690364302905393e+00   4.399637550717139e+00   2.640821511697268e+00 -1.15549836e+00   2.11817408e+00   6.38494170e-01
C     3.576257087576764e+00   3.605324849354467e+00   7.100784051221000e+00 -1.61636938e+00  -1.07477769e+00   2.86974870e-01
C     5.304513377995218e+00   5.353367860641050e+00   9.482713967728820e-02  1.33398824e+00   3.38586970e-01  -3.88215599e+00
C     3.557727704501661e+00   5.299827647972567e+00   1.754279585872239e+00  2.74394490e-01   1.10715997e+00   3.27722760e-01
C     5.289344004124138e+00   3.552728635209920e+00   1.740899330890387e+00 -7.27250100e-02  -4.46706470e-01   2.53408854e+00
C     4.462258915451124e+00   4.435088320586472e+00   8.803086921980026e-01 -1.26834582e+00   3.40129270e-01   3.03879600e-01
C     6.234166820747153e+00   6.218848170001054e+00   8.888770426556982e-01  2.76394610e-01   5.05096600e-02   1.01392120e+00
C     4.505914084540009e+00   6.214006836607250e+00   2.629875393873182e+00 -2.28908313e+00  -3.71846830e-01   1.14617500e+00
C     6.153581903378619e+00   4.421095248490549e+00   2.661436648137530e+00  2.65629296e+00  -3.27956450e-01   6.00720510e-01
C     5.379917250452940e-02   7.090312491691026e+00   3.533313684844819e+00 -1.45136999e+00   2.07880260e-01  -5.87152240e-01
C     1.827420989578467e+00   1.802443272007859e+00   3.504171640050736e+00 -2.78613580e-01  -8.30357160e-01   1.35449580e+00
C     1.632356845188940e-02   1.781400350694325e+00   5.294993280832931e+00 -6.01248440e-01  -2.95363240e-01   1.16631879e+00
C     1.770127814103529e+00   1.449577974360880e-02   5.236042705539914e+00  7.75962620e-01  -6.65196010e-01   2.43226843e+00
C     9.013398846142132e-01   8.792697962320896e-01   4.364012837746294e+00  6.05533040e-01   1.42772133e+00   1.28838296e+00
C     2.663873131074761e+00   2.735104288370316e+00   4.449019407237148e+00  1.21178230e-01  -1.94617323e+00  -9.49578300e-02
C     8.743938448201268e-01   2.639690917079557e+00   6.290591915651737e+00 -6.49280000e-03   4.18334420e-01  -1.10129829e+00
C     2.652828632681614e+00   8.934520234539302e-01   6.193470674742296e+00 -5.04618300e-02   2.27507250e-01  -4.96644440e-01
C     3.598319925367814e+00   7.096786985181774e+00   3.520511344621973e+00 -6.53222730e-01   7.94072560e-01   1.72325100e-02
C     5.317149736549887e+00   1.767552574756756e+00   3.521247919373857e+00 -6.68230810e-01   1.30520138e+00   8.81383830e-01
C     3.546713203651971e+00   1.825134281105840e+00   5.297052519781719e+00 -1.94841580e-01  -1.32841791e+00   7.56241990e-01
C     5.430189365821878e+00   7.104560827243232e+00   5.260771201813465e+00 -2.68130021e+00   6.86767300e-01   2.87631430e+00
C     4.458495574347643e+00   9.104824534511523e-01   4.442616069056825e+00  6.35883500e-02  -8.75833080e-01  -1.13783700e+00
C     6.152187870618611e+00   2.661824057170319e+00   4.446818355257091e+00  2.07339904e+00  -6.56628110e-01  -4.86051800e-02
C     4.390512824020976e+00   2.687345853408263e+00   6.197971870113733e+00  1.30126232e+00  -2.53338030e-01   7.94794300e-01
C     6.270499177189818e+00   8.691324036494814e-01   6.209198130873272e+00 -7.85698150e-01   1.04670536e+00  -7.91151210e-01
C     3.803716943962000e-03   3.476561531415489e+00   3.573835247990129e+00 -1.18550156e+00   1.79475611e+00  -1.01943020e-01
C     1.781286544848179e+00   5.269640380716439e+00   3.554778491040850e+00  4.30459630e-01   3.07253210e-01   8.30358600e-01
C     7.097633598315816e+00   5.347146924585156e+00   5.379541854654377e+00  6.13747920e-01  -1.09303703e+00  -1.56605453e+00
C     1.782448629778097e+00   3.517548696242409e+00   5.420790111844130e+00 -5.28371860e-01   1.78109625e+00  -1.34815346e+00
C     8.503489655499410e-01   4.353454413291903e+00   4.505844990672142e+00  9.61114670e-01   1.87625050e+00  -7.22971150e-01
C     2.691669551466878e+00   6.219856428665474e+00   4.418067842380917e+00 -8.61629830e-01   5.51519780e-01  -4.46428860e-01
C     9.040258021011801e-01   6.195740678421767e+00   6.203835323596066e+00 -4.08886250e-01   1.48966644e+00   4.07283230e-01
C     2.658406327574623e+00   4.519690491914472e+00   6.262112518014290e+00 -1.67650200e-02  -1.98882304e+00  -5.17116030e-01
C     3.542220893808810e+00   3.614856035656042e+00   3.553954269438061e+00  1.29383000e-01  -1.38420248e+00   1.12352200e-01
C     5.335700231640170e+00   5.347930201673654e+00   3.568302051822721e+00  4.17881380e-01  -6.82966280e-01  -5.98894200e-01
C     3.539408446399207e+00   5.425982388062683e+00   5.369861533646235e+00  2.39222670e-01  -2.61256644e+00  -1.24643326e+00
C     5.285706411016806e+00   3.537616910646288e+00   5.363660998763262e+00  8.90277600e-01   2.61301574e+00  -1.38994390e+00
C     4.390814789813873e+00   4.499461556075156e+00   4.424734974124668e+00  1.49815097e+00  -4.38461280e-01   1.80188234e+00
C     6.288477657511870e+00   6.221650452366310e+00   4.430599493870394e+00 -9.70603610e-01  -4.09943020e-01  -4.22735090e-01
C     4.460577489164589e+00   6.230494112032078e+00   6.224505976816991e+00  3.89541820e-01   8.55493110e-01   7.89357500e-02
C     6.210513686647556e+00   4.541454065113222e+00   6.259367387366900e+00 -6.74116960e-01  -3.85818997e+00   9.81128710e-01
