64
Lattice="7.10842262195238 0 0 0 7.10842262195238 0 0 0 7.10842262195238 " PBC="1 1 1" Properties=species:S:1:pos:R:3:force:R:3 Energy="-511.42071192"
C     1.017535155939900e-02   7.106848601979253e+00   7.099939144108387e+00  9.22760790e-01  -6.05577210e-01   7.38329360e-01
C     1.777650942099180e+00   1.763474188362757e+00   4.034982365481080e-02  3.01467810e-01   2.99160800e-01  -6.04214800e-01
C     7.089213671722427e+00   1.788498821522657e+00   1.774131064470435e+00  1.71640730e-01   3.32034700e-02   2.72811800e-01
C     1.730484283320242e+00   2.437975705981400e-02   1.811750969502261e+00  1.73499080e-01  -9.19884840e-01   6.16132800e-01
C     8.633074778177485e-01   8.810018344876788e-01   9.012020522996114e-01  7.50171470e-01   3.70167650e-01   3.44249980e-01
C     2.686460357202489e+00   2.705295402450251e+00   9.324899166299938e-01 -1.32693550e-01  -1.72514852e+00  -1.15063418e+00
C     8.727638835133608e-01   2.702788972634439e+00   2.646759816869789e+00  6.34305240e-01  -1.58762460e+00   1.56753100e-02
C     2.678381990315990e+00   9.276473037201188e-01   2.717490185791766e+00 -4.14978580e-01  -1.51121617e+00  -1.38772091e+00
C     3.516400614905053e+00   7.093332078535775e+00   3.876592492662240e-02 -1.03355434e+00   3.21879000e-03  -8.01781340e-01
C     5.300882253552469e+00   1.770957367023283e+00   7.086999895665880e+00  1.36942516e+00   2.33716650e-01  -7.88156380e-01
C     3.559788009713842e+00   1.810236520063070e+00   1.853402914012603e+00  9.39442900e-02  -9.67876100e-01  -2.49507509e+00
C     5.347235140109871e+00   5.062526180469940e-02   1.774350074971357e+00 -1.21771043e+00  -8.69806000e-03   5.54001600e-02
C     4.397840114973445e+00   9.061392072303324e-01   8.515950009510008e-01  1.22162988e+00  -1.06540100e-02   2.21055641e+00
C     6.203320034040343e+00   2.682110286895954e+00   8.237904769570970e-01  8.85772550e-01  -5.61922210e-01   1.98536183e+00
C     4.495577371787135e+00   2.649447795799316e+00   2.678385331274622e+00 -1.07038662e+00   1.20190075e+00  -3.94398060e-01
C     6.222606250871795e+00   9.158686474387788e-01   2.740264505602853e+00 -1.16737235e+00   7.02751510e-01  -1.80989030e+00
C     6.027999249140959e-02   3.594431689278901e+00   9.930039894782800e-03 -2.52249111e+00  -1.54292698e+00  -1.53496896e+00
C     1.773264405584604e+00   5.311504014052405e+00   7.041109625252589e+00  1.08822312e+00   6.13431690e-01   2.36455215e+00
C     7.034893096418720e+00   5.423628220659391e+00   1.762805641215346e+00  1.89341146e+00  -3.81408898e+00  -2.36698200e-02
C     1.779127290393128e+00   3.579290606929848e+00   1.729287722540617e+00 -6.09087610e-01   8.17383370e-01   1.64446475e+00
C     9.073644149531156e-01   4.478041319688953e+00   8.337130530081288e-01 -6.88346290e-01   2.04423700e-01   1.52408320e+00
C     2.592398936809827e+00   6.177656424771130e+00   9.615261880954913e-01  2.25697847e+00   1.18181005e+00  -2.35456404e+00
C     7.612124025168676e-01   6.242409036775044e+00   2.691662585212710e+00  3.06545684e+00   5.84804510e-01   3.88500000e-05
C     2.655613215074547e+00   4.432992544345416e+00   2.656906379317577e+00  1.10378990e+00   5.01659200e-02  -1.00868362e+00
C     3.590825088894191e+00   3.521114138860149e+00   7.100014564472385e+00 -5.04720970e-01   7.92780820e-01  -6.96837450e-01
C     5.310768150142782e+00   5.349113682955658e+00   7.081676326881535e+00  4.19891170e-01  -1.27728622e+00   9.72433920e-01
C     3.605598097119980e+00   5.297918112404156e+00   1.753783133636459e+00 -1.64099220e+00   8.70719250e-01   8.32313090e-01
C     5.337144520948102e+00   3.545350732288396e+00   1.734695383964556e+00  1.08569952e+00  -8.95386500e-01   7.06473380e-01
C     4.527275321018466e+00   4.386425196677571e+00   8.364913089049296e-01 -3.11914604e+00   1.86922104e+00   1.05848399e+00
C     6.185877528783839e+00   6.249014965000035e+00   8.756634801842850e-01  4.64166000e-03   5.36062950e-01  -5.13718750e-01
C     4.476075343244939e+00   6.269415213824495e+00   2.657883005501339e+00 -2.88722810e-01  -1.39070303e+00  -5.58826970e-01
C     6.207492749202508e+00   4.392844670977240e+00   2.630183970499116e+00  3.86613940e-01   1.91833656e+00   6.08915830e-01
C     7.058319542920966e+00   5.240513974452120e-02   3.624540977138887e+00  1.69990259e+00  -2.15921480e-01  -7.41037870e-01
C     1.826726496688494e+00   1.814200674105565e+00   3.551612968279711e+00 -1.85998412e+00  -3.40491380e-01   4.02113600e-01
C     4.761299663524820e-02   1.758910296703812e+00   5.377398665234447e+00 -3.04160510e-01   7.42632670e-01  -3.04732040e-01
C     1.777165507918461e+00   7.057548776656279e+00   5.260248874919347e+00 -3.20564770e-01   1.71273408e+00   2.08632062e+00
C     8.967280111025834e-01   9.227735559191682e-01   4.465481305593222e+00  7.01858490e-01  -8.90867300e-01  -1.27215200e+00
C     2.739516983880133e+00   2.646677288083171e+00   4.423569406067666e+00 -1.65434333e+00   1.36406742e+00   3.18086740e-01
C     9.409015974531446e-01   2.633924422481760e+00   6.233022506873786e+00 -3.74331990e-01   1.82748455e+00   3.28957810e-01
C     2.626807185417711e+00   9.057023235761072e-01   6.197794017379779e+00  5.63133090e-01  -2.07876496e+00   1.50887778e+00
C     3.568189525492646e+00   2.842658205738000e-04   3.574749462223288e+00 -9.90036020e-01  -3.46823240e-01  -9.00356040e-01
C     5.310337450816237e+00   1.808044495779741e+00   3.626777002558234e+00  7.56120690e-01  -1.71406599e+00  -2.84615900e-01
C     3.521111224406875e+00   1.758236347155210e+00   5.353182046473763e+00  5.63030280e-01  -1.78186580e-01  -1.39452919e+00
C     5.298193563780681e+00   7.058612481017136e+00   5.397074210372798e+00  8.25557320e-01   2.10081520e+00  -8.14972790e-01
C     4.384213268810906e+00   8.706204808407522e-01   4.490086755071221e+00  2.08054034e+00  -2.60216510e-01   9.61532800e-02
C     6.233098424827367e+00   2.646757684343003e+00   4.536041356709223e+00 -1.28989990e-01  -5.36444900e-01  -2.01654520e+00
C     4.415232505850478e+00   2.626582132757562e+00   6.145888386492766e+00  1.37297181e+00   1.12516254e+00   2.57498666e+00
C     6.317244804096975e+00   8.874594810168177e-01   6.243253304129620e+00 -4.36656089e+00  -6.13479330e-01  -5.43556000e-02
C     7.058380888608176e+00   3.465862146940544e+00   3.585830355740248e+00  1.86122372e+00   2.84599195e+00  -1.52905003e+00
C     1.741264845981507e+00   5.306574962723470e+00   3.508145319379542e+00 -6.35056470e-01   3.79773800e-02   5.14004080e-01
C     7.081725232829161e+00   5.309075279295830e+00   5.361804634196049e+00  1.60963459e+00   7.91762100e-01  -1.64544695e+00
C     1.834261353581467e+00   3.529718955525885e+00   5.322388430768149e+00 -9.55493060e-01  -2.19477800e-02  -5.22531840e-01
C     8.712542678015514e-01   4.390595921481403e+00   4.401063926800068e+00  1.20816230e-01   5.82332350e-01   1.68887570e+00
C     2.637623787781660e+00   6.172505164151094e+00   4.393219213765088e+00  6.48207330e-01   1.18315728e+00   7.01505800e-02
C     9.280917223023213e-01   6.192634937494863e+00   6.206591969888102e+00 -1.61357468e+00   4.44912330e-01  -5.74464730e-01
C     2.694116697038039e+00   4.438131365225868e+00   6.198242701015555e+00  4.99079000e-02  -4.86107630e-01  -3.90902960e-01
C     3.602793468975259e+00   3.552632742588776e+00   3.512736720634027e+00 -6.76503470e-01   2.65506110e-01   1.06985901e+00
C     5.382859142238453e+00   5.356657212124229e+00   3.498814093006268e+00 -8.39692800e-01  -1.36876880e-01   1.62498215e+00
C     3.551019557159393e+00   5.343175662120041e+00   5.270156807619782e+00  7.63044400e-02  -1.65140975e+00   1.13739282e+00
C     5.370382936445413e+00   3.549857685482155e+00   5.331294075879164e+00 -1.99100966e+00   5.19414850e-01  -5.19486300e-02
C     4.485976665112338e+00   4.464273940011215e+00   4.370629215352538e+00 -2.03174790e-01  -7.16171100e-02   1.33050296e+00
C     6.255533601795254e+00   6.287813091081127e+00   4.515388261292170e+00 -2.15611180e+00  -2.92436256e+00  -1.34380822e+00
C     4.371098939919267e+00   6.169984588574269e+00   6.255326320191655e+00  1.27144511e+00   1.86767893e+00  -1.04388126e+00
C     6.192866174482692e+00   4.461488007017985e+00   6.216593804851347e+00  1.46549750e+00  -4.08188700e-01   3.19665080e-01
