64
Lattice="7.10842262195238 0 0 0 7.10842262195238 0 0 0 7.10842262195238 " PBC="1 1 1" Properties=species:S:1:pos:R:3:force:R:3 Energy="-511.63929679"
C     4.878012854522600e-02   7.081044530279070e+00   3.341619714703660e-02 -2.02634619e+00   6.43598780e-01  -2.79207375e+00
C     1.807532973688005e+00   1.782085744803346e+00   2.481010096522880e-02 -6.65707420e-01  -1.05340787e+00  -5.28681410e-01
C     1.572454167770200e-02   1.779519888574430e+00   1.730461252030953e+00 -5.51888890e-01  -7.83624600e-01   1.79621293e+00
C     1.693599815692681e+00   7.077347795095538e+00   1.805437339615403e+00  3.51989694e+00   1.54718437e+00  -8.57140260e-01
C     8.997197329306628e-01   8.766063413606018e-01   8.441844703696508e-01 -5.99522800e-02  -2.91176000e-02   2.25723803e+00
C     2.665715776386317e+00   2.612005743501443e+00   9.524001107990304e-01  4.22842360e-01   2.38249847e+00  -2.31557929e+00
C     9.223753420839957e-01   2.646894592562665e+00   2.642568264387680e+00 -9.43386200e-01   8.19030150e-01   1.00660870e-01
C     2.705005520975807e+00   8.717137562397081e-01   2.676802285557148e+00 -1.34017299e+00  -3.93273040e-01   3.50018330e-01
C     3.502520637813015e+00   7.053637224941172e+00   4.200786323092580e-02  1.82618934e+00   2.32648300e+00  -1.65566562e+00
C     5.323167513887300e+00   1.799273413108923e+00   7.054326386514180e+00  2.22501660e-01  -1.08434585e+00   1.34335422e+00
C     3.586627636421308e+00   1.760430219628421e+00   1.790365635471122e+00 -1.92880153e+00  -3.74332110e-01   2.19893180e-01
C     5.324425207101458e+00   3.183834057807520e-02   1.753979894774580e+00  9.52878850e-01  -4.23787090e-01   9.99277420e-01
C     4.432500072826303e+00   8.923732492371189e-01   9.196934053136959e-01  2.60720440e-01  -1.96847840e-01  -2.48276545e+00
C     6.190259444823711e+00   2.632238304636296e+00   9.186370937123639e-01  8.97672210e-01   1.70290044e+00  -2.20486357e+00
C     4.373478128970182e+00   2.694224531809184e+00   2.613828627398116e+00  3.42957257e+00  -9.37161600e-01   2.63007897e+00
C     6.210657987626742e+00   9.026899162382035e-01   2.674488280741659e+00  4.78869430e-01   1.40869280e-01   1.21253880e-01
C     9.868267702215000e-03   3.582154732571898e+00   3.481954194067700e-02 -2.60836600e-01  -7.93456580e-01  -1.09753085e+00
C     1.742756832805219e+00   5.359370497038282e+00   5.026507803054399e-03  2.18077284e+00  -2.69987530e-01  -1.71822017e+00
C     7.094020529266523e+00   5.294287130129860e+00   1.747671240783556e+00 -1.05605240e-01   1.53947102e+00   1.55593964e+00
C     1.773726595223357e+00   3.608480775745069e+00   1.742414704424519e+00  8.86473130e-01  -2.40972862e+00   1.58871841e+00
C     9.291237230982928e-01   4.502946318096159e+00   8.600535973634437e-01 -1.94062097e+00  -2.03676108e+00   1.23902285e+00
C     2.650225670486622e+00   6.204742784827735e+00   8.777427648848611e-01 -1.17972303e+00  -5.20940860e-01   2.06507182e+00
C     8.340701090763314e-01   6.257523675791949e+00   2.705428827542828e+00  6.34374120e-01  -2.18009880e+00  -1.92320245e+00
C     2.676142908274917e+00   4.398266051656836e+00   2.676085969809730e+00 -1.04789575e+00   2.12632499e+00  -8.09806430e-01
C     3.596781662712846e+00   3.548123230362874e+00   2.096117445340360e-02 -2.03418198e+00   6.88712880e-01  -4.02458980e-01
C     5.328861573658600e+00   5.348214609662680e+00   4.031456587861560e-02  1.43347240e-01  -2.29541200e-01  -2.51551872e+00
C     3.572291440765518e+00   5.297089128158212e+00   1.782434057511726e+00 -7.06330300e-01   1.37668446e+00   1.83686510e-01
C     5.311751244991129e+00   3.534116225758617e+00   1.746718143478667e+00  2.19089860e-01   4.96756660e-01   1.31578966e+00
C     4.455848753185086e+00   4.470270605333448e+00   8.786029551061073e-01  2.91244020e-01  -1.64349303e+00   6.29072770e-01
C     6.216084699623303e+00   6.221330999853768e+00   8.588981232665626e-01  2.63182080e-01   2.89130080e-01   1.86871010e+00
C     4.481103059479839e+00   6.259005781908219e+00   2.652169468652062e+00 -1.27517173e+00  -1.15466577e+00  -1.05822600e-02
C     6.226073881594283e+00   4.387749780148582e+00   2.651084794444476e+00 -4.98484820e-01   9.03229620e-01   2.48162330e-01
C     3.078352174549340e-02   2.400642270381160e-02   3.582137885610289e+00 -2.80265522e+00  -2.99945000e-02  -9.88780010e-01
C     1.832438825105925e+00   1.793749031385563e+00   3.549510154700263e+00 -6.73662870e-01  -9.21168600e-02  -6.13457780e-01
C     4.444839796905040e-02   1.789469832052550e+00   5.324438073346400e+00 -7.78373220e-01  -2.86309590e-01   7.45104340e-01
C     1.731000212634001e+00   1.500360545558160e-02   5.237794434126161e+00  1.60261763e+00  -7.36038790e-01   3.06893419e+00
C     8.882550556764481e-01   9.180846981905638e-01   4.385940117917982e+00  1.07044607e+00   4.24347720e-01   1.43177601e+00
C     2.706750425476339e+00   2.686911742038860e+00   4.471113451003500e+00 -2.02125630e-01  -1.42872121e+00  -8.09949960e-01
C     9.108619010506080e-01   2.663496455760127e+00   6.262869565023320e+00  5.50350900e-01   4.00169920e-01  -7.03642440e-01
C     2.660371948597506e+00   8.806403711974518e-01   6.226993427144406e+00 -2.20236030e-01  -3.09145590e-01  -6.55290610e-01
C     3.563587106183101e+00   7.074905412167533e+00   3.600453305164529e+00 -1.86108280e-01   9.49001620e-01  -3.00075732e+00
C     5.312763128951085e+00   1.791203007655758e+00   3.639143454306022e+00  3.39311650e-01  -4.98770100e-01  -3.83883490e+00
C     3.576591538861034e+00   1.764890968075149e+00   5.333583343383935e+00 -1.88815338e+00  -4.15056870e-01  -2.26237490e-01
C     5.305778677221578e+00   2.397955286630800e-03   5.356488813592360e+00  1.79422149e+00  -1.95844000e-02  -7.17542680e-01
C     4.410818601908815e+00   8.758583931325253e-01   4.423184840403924e+00  1.46068789e+00   2.68717930e-01   2.43649773e+00
C     6.231769078713201e+00   2.672131838643129e+00   4.466587305068668e+00 -1.70692308e+00  -9.70827680e-01   9.17396860e-01
C     4.370338694120059e+00   2.682712583544547e+00   6.170133510028158e+00  3.55799084e+00  -2.94654380e-01   1.76297416e+00
C     6.273227745212505e+00   8.792078818710694e-01   6.206745014227111e+00 -1.66927650e+00   4.35185260e-01   4.29471470e-01
C     7.084806734034931e+00   3.465432442793165e+00   3.589553676424378e+00  1.28657117e+00   2.60735163e+00  -2.05351782e+00
C     1.708290081879173e+00   5.335883913280671e+00   3.514817853524484e+00  2.14875234e+00  -1.50901186e+00   1.57881115e+00
C     7.093113707792889e+00   5.316952833243314e+00   5.352028207314084e+00 -1.13333470e-01  -5.51969180e-01  -9.92711080e-01
C     1.864054103382185e+00   3.520447155565714e+00   5.377714208114550e+00 -2.68266383e+00   1.94036684e+00  -5.63104420e-01
C     8.542966280519579e-01   4.390378332665005e+00   4.446031026367700e+00  1.37007687e+00   8.24858000e-01   4.57641920e-01
C     2.669776604976445e+00   6.194525351406425e+00   4.415574492062726e+00 -2.17216328e+00   1.32142020e+00  -8.58030000e-04
C     8.559621314718240e-01   6.193475508469677e+00   6.189556563995046e+00  1.45273721e+00   1.37111287e+00   3.12591880e-01
C     2.695426281737322e+00   4.482791949610125e+00   6.254066707703391e+00 -6.98362120e-01  -1.07824894e+00  -8.17403150e-01
C     3.584496460235605e+00   3.539303668249788e+00   3.548110790623289e+00 -1.85180229e+00   1.47256645e+00   1.68429010e-01
C     5.340905942777475e+00   5.390205910268902e+00   3.521595236903071e+00  8.50702380e-01  -2.06503063e+00   5.24741670e-01
C     3.530229695691132e+00   5.393419770303856e+00   5.295287640613625e+00  1.00060549e+00  -2.54759752e+00   1.75194523e+00
C     5.291720918479814e+00   3.565389873243760e+00   5.328382963563596e+00  1.06982088e+00   1.31594635e+00  -1.14631010e-01
C     4.418651586046472e+00   4.504868293404154e+00   4.402030743360614e+00  1.24155592e+00  -1.18082989e+00   5.01232700e-01
C     6.239967720110430e+00   6.215344428491655e+00   4.459277500835843e+00 -8.58670280e-01   7.59666670e-01  -2.57101360e-01
C     4.456389419809563e+00   6.208356564719290e+00   6.217786171661626e+00 -1.27703199e+00   9.02274140e-01   6.99705630e-01
C     6.222406788533077e+00   4.470481512232583e+00   6.237492069764563e+00 -1.04467689e+00  -1.45671826e+00   3.86175260e-01
