64
Lattice="7.10842262195238 0 0 0 7.10842262195238 0 0 0 7.10842262195238 " PBC="1 1 1" Properties=species:S:1:pos:R:3:force:R:3 Energy="-506.4694803"
C     7.008956594805126e+00   7.067066883460233e+00   7.107641759775193e+00  2.02529799e+00   1.34376941e+00  -6.01823760e-01
C     1.807936945345500e+00   1.857157298503582e+00   7.099958336849461e+00 -1.38121020e-01  -3.00444022e+00  -3.50886620e-01
C     1.134463021300804e-01   1.695536434351274e+00   1.749649656967155e+00 -3.19641902e+00   1.78362873e+00   7.40939550e-01
C     1.748263727808933e+00   7.073534197444135e+00   1.685444677841886e+00  2.35916036e+00   1.18397242e+00   3.14167393e+00
C     9.628219824548909e-01   8.631312600209988e-01   8.413657675481422e-01 -2.66197870e+00   1.18612126e+00  -5.66869370e-01
C     2.652302111818151e+00   2.627673346713958e+00   9.263291178294659e-01  1.67368680e-01   2.49408264e+00   4.04172830e-01
C     8.105242410740696e-01   2.674739563481276e+00   2.638697159597280e+00  3.91347196e+00   1.56802450e-01   8.58520750e-01
C     2.638368679388011e+00   8.798724483018132e-01   2.739468291185187e+00 -1.73785790e-01  -2.52972030e-01  -2.14830962e+00
C     3.630157341850949e+00   4.900020530954120e-02   5.138060279230060e-02 -2.19337932e+00  -1.90990595e+00   2.44501220e-01
C     5.382979701086088e+00   1.873418526089095e+00   3.466123736892960e-02 -9.58918480e-01  -1.95757291e+00  -4.42146880e-01
C     3.593818374575247e+00   1.837232318815496e+00   1.794121086225494e+00 -2.49610450e+00  -1.84085739e+00   1.98756028e+00
C     5.290549521516263e+00   2.547388546948440e-02   1.771299566488210e+00  1.49223669e+00  -5.82691060e-01  -6.54842760e-01
C     4.444165207598402e+00   1.039784092235143e+00   9.318633802602670e-01  1.72340207e+00  -4.07213927e+00  -1.01698257e+00
C     6.357711916725015e+00   2.696576779938368e+00   9.206234713292969e-01 -3.32447778e+00  -2.01820786e+00  -1.03056462e+00
C     4.489962713096502e+00   2.634722556173533e+00   2.700068792550443e+00 -5.09214310e-01   4.88828420e-01  -5.43770480e-01
C     6.284612808133376e+00   7.734432966452920e-01   2.646140744343814e+00 -2.04245988e+00   3.59883327e+00   2.30441200e-01
C     7.100170878685798e+00   3.534248726756254e+00   7.028294205532122e+00  1.53707051e+00   1.04516219e+00   1.53868726e+00
C     1.830814834874160e+00   5.386801544507732e+00   7.060290708513492e+00 -1.27008506e+00  -3.76317242e+00  -2.05985600e-01
C     5.566776355864880e-02   5.411808193358403e+00   1.730928275397087e+00 -2.48684495e+00  -2.71724330e+00  -1.38288020e-01
C     1.737632370938461e+00   3.589172949308851e+00   1.717297875023237e+00  1.17941893e+00  -1.44566890e+00   2.12051274e+00
C     9.350494463627771e-01   4.430927121068950e+00   7.973615749086156e-01 -1.35953396e+00   2.43605195e+00   5.01471620e-01
C     2.691475918034709e+00   6.158068242146779e+00   8.802661127465088e-01 -2.06092300e-01   3.19756800e+00   1.10188380e-01
C     8.561532058718496e-01   6.294165106450133e+00   2.632035785675852e+00  1.79140122e+00  -1.93415643e+00   1.02075036e+00
C     2.650562325381906e+00   4.477820247745470e+00   2.671600412968058e+00 -7.80106830e-01  -9.63113280e-01   2.03735280e-01
C     3.528089349640250e+00   3.502733819407389e+00   1.075003909453552e-01  9.09066010e-01   1.12611453e+00  -3.27858671e+00
C     5.259301819773684e+00   5.229031241804451e+00   7.085441516174897e+00  2.29803406e+00   1.48090696e+00   1.44615400e+00
C     3.495400557379918e+00   5.350991586043410e+00   1.822669080141223e+00  2.35608292e+00  -1.33061424e+00  -1.58083375e+00
C     5.380983798182845e+00   3.521907083403410e+00   1.856635824620179e+00  9.16062900e-01   1.90271704e+00  -1.73180765e+00
C     4.426224330832010e+00   4.427232660580657e+00   9.892893410697466e-01 -3.15269420e-01  -1.27731392e+00  -2.09433711e+00
C     6.176470526625435e+00   6.203801629672847e+00   8.590763314216460e-01 -1.05185740e-01  -3.97995250e-01   2.85441800e-01
C     4.429014742131491e+00   6.226164087477332e+00   2.587122781204359e+00 -1.66496869e+00   3.32982850e-01   3.84870072e+00
C     6.272884052978829e+00   4.514049389891693e+00   2.621869746150086e+00 -7.60015230e-01  -7.17668910e-01   1.92535181e+00
C     7.078390742862346e+00   7.070273990493699e+00   3.584960426980013e+00  2.47978900e-02   4.80093320e-01   8.53308720e-01
C     1.671442933470367e+00   1.748150703889275e+00   3.624132669343594e+00  2.25940119e+00   4.83629190e-01  -2.46324358e+00
C     4.876449001546200e-03   1.727599969757950e+00   5.348480038163311e+00 -2.13987258e+00   1.82854382e+00   5.22996000e-01
C     1.766202685301218e+00   6.095124083941620e-02   5.493995633522390e+00  7.62062450e-01  -1.24017115e+00  -3.96086501e+00
C     8.498756156876752e-01   8.985303516578843e-01   4.536071922926490e+00  7.93957560e-01  -2.21745269e+00  -1.59082901e+00
C     2.597583038342368e+00   2.611396978188266e+00   4.411458288860389e+00  2.80473022e+00   1.27227036e+00   4.53226500e-02
C     8.785093371802020e-01   2.695736777637363e+00   6.153271620731256e+00  9.77434570e-01  -1.01238342e+00   6.38456730e-01
C     2.724740492527261e+00   8.850618100670917e-01   6.307783422505529e+00 -4.81376310e-01   1.83588006e+00  -2.01339433e+00
C     3.521553297209612e+00   7.060749059604029e+00   3.607997971680718e+00  6.97206160e-01   2.43926436e+00  -2.18022611e+00
C     5.371664513959573e+00   1.717726583991449e+00   3.550257889675660e+00  1.15869891e+00   6.62885940e-01  -4.45209170e-01
C     3.626023580844740e+00   1.782108136334599e+00   5.307212303895580e+00 -3.18011829e+00  -2.72928880e-01   9.32438050e-01
C     5.149052886138080e+00   2.317125413018780e-02   5.428273645925787e+00  4.77129723e+00  -2.03245604e+00  -3.55122299e+00
C     4.432293928570323e+00   8.627408654507084e-01   4.403617343289398e+00 -1.93830080e-01   6.87207810e-01   2.02317291e+00
C     6.327034239392334e+00   2.669160233651064e+00   4.422680639987488e+00 -2.72447237e+00   7.70534000e-02  -1.88344180e-01
C     4.457812028428505e+00   2.684884490991862e+00   6.224715817452733e+00  3.38771730e-01   2.18816190e-01  -3.97942350e-01
C     6.082145881343155e+00   8.189916519305611e-01   6.242106217971432e+00  3.34097358e+00   3.25878476e+00   8.45102150e-01
C     9.468163026625680e-02   3.672621850150983e+00   3.517841918675484e+00 -2.32138934e+00  -1.85043483e+00   9.61505800e-02
C     1.793756779566219e+00   5.430906747832688e+00   3.592954487974239e+00  1.17168064e+00   8.25391110e-01  -3.15264940e+00
C     7.060679610315032e+00   5.346362865570170e+00   5.306524350754416e+00  1.20263941e+00  -1.85822900e-02   1.28827440e+00
C     1.825020404175467e+00   3.592212652989615e+00   5.198115219061321e+00 -2.12746543e+00  -6.70125010e-01   3.68895144e+00
C     9.954988325652213e-01   4.613528423499962e+00   4.388791590567769e+00 -4.41823669e+00  -5.01138972e+00   1.89942824e+00
C     2.668652692275996e+00   6.257495171017244e+00   4.501780750039157e+00  6.53210600e-02  -1.39735190e+00   7.29314100e-01
C     8.794893043225951e-01   6.252384428406142e+00   6.260079438060744e+00 -1.38733409e+00  -9.53874130e-01  -6.79755990e-01
C     2.672421364696442e+00   4.328443925893017e+00   6.188264892520765e+00  1.23251702e+00   3.37102795e+00   7.88776630e-01
C     3.511674011452337e+00   3.489055010675497e+00   3.505466012725612e+00  1.28692970e+00   1.29661677e+00   9.91520550e-01
C     5.253507175822313e+00   5.349756568697411e+00   3.544197319634075e+00  3.10678642e+00   2.54128320e-01  -1.68724838e+00
C     3.601618659968852e+00   5.229062447779753e+00   5.332102090278378e+00 -1.77347548e+00   1.67461952e+00  -1.29931500e-01
C     5.335880074732456e+00   3.567017133349930e+00   5.236447103702766e+00  9.20932480e-01  -2.62630380e+00   1.77615576e+00
C     4.498692780168803e+00   4.403302582335784e+00   4.370628220173371e+00 -3.71397916e+00   6.79668400e-02   6.84413250e-01
C     6.100718412543560e+00   6.217849507707170e+00   4.501248826774503e+00  1.75368090e+00   3.81968270e-01  -1.36442523e+00
C     4.428173460314414e+00   6.141798271201445e+00   6.225511392112363e+00 -1.55816965e+00   9.54985230e-01   1.41044602e+00
C     6.167382834811122e+00   4.333205502785024e+00   6.174583311504051e+00  1.30834164e+00   3.68688346e+00   3.72911730e-01
