64
Lattice="7.10842262195238 0 0 0 7.10842262195238 0 0 0 7.10842262195238 " PBC="1 1 1" Properties=species:S:1:pos:R:3:force:R:3 Energy="-505.67426891"
C     6.997550490953300e+00   3.413208638909680e-02   2.523333644802360e-02  2.10275274e+00  -1.44944767e+00   8.70247280e-01
C     1.688604513864928e+00   1.721062211305884e+00   7.075891776890284e+00  2.41762516e+00   2.06062622e+00   2.71554271e+00
C     3.718479848325580e-02   1.848769857401566e+00   1.847158306909386e+00 -1.88423496e+00  -2.29245514e+00  -1.52402396e+00
C     1.857055221554759e+00   7.075203468327990e+00   1.739761414597377e+00 -3.38417434e+00   1.63196247e+00  -9.15279410e-01
C     8.191314035192704e-01   9.056448875213374e-01   9.416757046764626e-01  1.55566651e+00  -7.62458720e-01  -1.59541360e+00
C     2.695725546329624e+00   2.602884571016590e+00   7.902911823496326e-01 -1.52216985e+00   2.05873363e+00   1.33804110e+00
C     9.429464773882399e-01   2.677054421307479e+00   2.678893938913083e+00  3.49051270e-01   1.20126120e-01  -3.12350620e-01
C     2.684566104742712e+00   9.128730870624846e-01   2.566405709983726e+00 -8.57265250e-01  -1.86789904e+00   4.27798673e+00
C     3.642652029542802e+00   4.944405521793400e-02   7.050109528047544e+00 -2.29760767e+00  -6.95099650e-01   2.85548285e+00
C     5.397737212950565e+00   1.894814309501485e+00   1.378373615818602e-01 -2.65589384e+00  -5.48189578e+00  -4.20855973e+00
C     3.518943653097358e+00   1.781202167871680e+00   1.720212683718568e+00  1.19430367e+00   8.35592610e-01   1.24642295e+00
C     5.284865697873538e+00   7.072627304886275e+00   1.889375015596887e+00  6.13470400e-01   1.29778056e+00  -4.38101677e+00
C     4.423699134780481e+00   8.867518375449969e-01   9.460325990687128e-01  1.95308959e+00   8.85852520e-01  -4.08458710e-01
C     6.228858819408347e+00   2.728911501667998e+00   9.189364293888922e-01  1.28141108e+00   3.31999230e-01   2.77284469e+00
C     4.385424544025353e+00   2.711868489762739e+00   2.683347081347608e+00  7.21409010e-01  -1.48578879e+00  -1.46250392e+00
C     6.186521338620532e+00   8.831626527957064e-01   2.669613040171958e+00  6.93726620e-01   4.95396620e-01   3.13748350e-01
C     7.085809590298161e+00   3.532877725285534e+00   4.153963143294640e-02  2.03072440e+00   2.34258793e+00  -2.08802272e+00
C     1.778100620914121e+00   5.284355739634780e+00   7.050849799179192e+00 -6.40714880e-01   1.59916810e+00  -8.19851720e-01
C     9.171201563252560e-02   5.392932559017481e+00   1.796168667361185e+00 -2.49383379e+00  -2.11186140e+00  -1.60936294e+00
C     1.810953191231618e+00   3.552418921236367e+00   1.728499824977416e+00  3.49696650e-01  -1.27452187e+00   7.39877530e-01
C     9.925744274993534e-01   4.413961448801795e+00   8.472511860563712e-01 -3.95581929e+00   1.02186520e+00   1.52391592e+00
C     2.657797633345673e+00   6.214711565625796e+00   7.056114581308468e-01  3.72207870e-01   9.51974960e-01   4.16295090e+00
C     9.337520881504009e-01   6.241854224389552e+00   2.665039409974024e+00  9.23836600e-01  -4.96644500e-01   8.03829690e-01
C     2.608955519355201e+00   4.450304894383748e+00   2.654443808469331e+00  1.34834357e+00   9.57254490e-01  -7.48341630e-01
C     3.578921537627417e+00   3.511408867288610e+00   7.000380780503679e+00  1.91743810e-01   5.98077250e-01   2.78017071e+00
C     5.347732089935235e+00   5.215545142409787e+00   7.478060596239999e-04 -1.00751561e+00   4.92689398e+00   9.39220150e-01
C     3.433819083791013e+00   5.379811548208580e+00   1.681646078962210e+00  3.79099459e+00  -2.00556021e+00   1.79627647e+00
C     5.327927242589427e+00   3.642277344586502e+00   1.806104607246742e+00 -1.80158430e+00  -3.18579925e+00  -5.95758410e-01
C     4.403831520062938e+00   4.427800339211091e+00   8.954693937934861e-01  8.42253200e-02   2.72816390e-01  -1.17966417e+00
C     6.165897743157353e+00   6.237926607639324e+00   8.949135151446022e-01  1.32533002e+00  -1.79239901e+00   1.52530135e+00
C     4.388343902111161e+00   6.219017279375183e+00   2.677407638827467e+00 -2.30710780e-01  -1.28912416e+00  -8.18119300e-02
C     6.178115628872382e+00   4.413088747756738e+00   2.680792456426432e+00  3.02532758e+00   4.07867519e+00  -7.25879740e-01
C     7.082188986320889e+00   7.080980696643942e+00   3.487643704448522e+00  8.75502040e-01   7.66869400e-01   2.93924539e+00
C     1.779646134160162e+00   1.724661916520652e+00   3.681156791022365e+00 -3.18850370e-01   1.25423097e+00  -4.89498587e+00
C     7.011124663704226e+00   1.734555276954716e+00   5.310798929612726e+00  3.09205355e+00   2.83320002e+00  -4.13501170e-01
C     1.747987921011277e+00   5.151943028606920e-02   5.405819560553732e+00  2.46678540e-01  -1.99856087e+00  -4.48831520e-01
C     8.346696334401021e-01   8.817349971967057e-01   4.509615653450920e+00  1.06122071e+00  -7.61369700e-01  -1.40050886e+00
C     2.692156904921705e+00   2.636150211772535e+00   4.409364218640763e+00 -8.38149540e-01  -5.10829170e-01   3.83394700e+00
C     8.860308302386503e-01   2.699273360059265e+00   6.262365435691110e+00 -2.31069713e+00  -3.92671161e+00  -2.04406270e-01
C     2.719979626477516e+00   9.607493796715776e-01   6.308351101135961e+00 -1.60024965e+00  -2.15676637e+00  -4.26674223e+00
C     3.549304863454997e+00   7.091707590714427e+00   3.550942288605514e+00  3.82823800e-02   1.57013751e+00   9.69560570e-01
C     5.311448141850612e+00   1.769484430772193e+00   3.533849659910367e+00  3.43886070e-01   1.66678322e+00   2.52846100e-02
C     3.641108293402416e+00   1.758998725481205e+00   5.351828247385784e+00 -8.90939040e-01   1.29895334e+00   2.26542930e-01
C     5.384350062798772e+00   7.085873921522872e+00   5.317649103238943e+00 -2.41097433e+00  -4.01147500e-01   1.33362658e+00
C     4.464075543935890e+00   8.761850962361405e-01   4.495297299935907e+00  2.77166830e-01  -4.62145900e-01  -2.15234478e+00
C     6.317792010470263e+00   2.750125664882447e+00   4.239627668383201e+00 -4.10445950e+00  -3.85874461e+00   6.40033522e+00
C     4.605959730515317e+00   2.665980849465817e+00   6.209194932083093e+00 -4.30879423e+00  -5.17318270e-01   6.48084970e-01
C     6.191557442794123e+00   8.405145339393971e-01   6.217213588219584e+00  1.81266630e-01   3.62687125e+00   6.83600800e-01
C     8.199864045920040e-02   3.616601793167288e+00   3.452346547592007e+00 -5.08293910e-01  -9.51726880e-01   2.98359315e+00
C     1.898627907152889e+00   5.368864364121102e+00   3.629611201741054e+00 -5.38752704e+00  -1.64382459e+00  -1.11599455e+00
C     7.082424346193839e+00   5.291828753250959e+00   5.293803970644379e+00  2.23509140e-01   1.60262078e+00   1.38358453e+00
C     1.789180377083463e+00   3.473062197128116e+00   5.449061801372620e+00 -2.64805590e-01   1.81229444e+00  -5.18585163e+00
C     9.183376869516097e-01   4.392930256385585e+00   4.548709489913004e+00  4.91096780e-01   1.65354766e+00  -3.61873129e+00
C     2.663622345924727e+00   6.238895059137072e+00   4.509166614394015e+00  1.27511431e+00   8.26642910e-01  -3.87084920e-01
C     7.682540059642397e-01   6.228020025539188e+00   6.267317944814691e+00  3.00001685e+00  -5.33238390e-01  -1.28904337e+00
C     2.656311830849640e+00   4.420202501693703e+00   6.151972911918581e+00  1.64750823e+00  -2.86140860e-01   2.09875373e+00
C     3.442003437258776e+00   3.558611210349101e+00   3.533852218942510e+00  3.39501744e+00   4.13610510e-01  -2.49852200e-02
C     5.280378292841984e+00   5.292913143121640e+00   3.555866648375519e+00  9.33820200e-02   6.33777030e-01  -2.45005460e-01
C     3.588713674123372e+00   5.286756040700874e+00   5.343274042689102e+00 -1.47396531e+00   3.00493874e+00   2.73123180e-01
C     5.345406427306649e+00   3.540240629435330e+00   5.331523820098242e+00  1.59421549e+00   1.41968204e+00  -3.93964590e+00
C     4.388953236098148e+00   4.458998424163782e+00   4.424860508868137e+00  7.20431990e-01  -1.99532444e+00   7.30583390e-01
C     6.179469641213039e+00   6.181125406093916e+00   4.429392057204161e+00  1.55264386e+00  -2.36521600e-02  -1.44439485e+00
C     4.498113301556820e+00   6.251023165474412e+00   6.302814919431053e+00  7.53069200e-02  -2.86277301e+00  -4.15522278e+00
C     6.201059768899861e+00   4.452677614770078e+00   6.147589787446864e+00  6.25663160e-01  -1.77361286e+00   2.64960343e+00
