64
Lattice="7.10842262195238 0 0 0 7.10842262195238 0 0 0 7.10842262195238 " PBC="1 1 1" Properties=species:S:1:pos:R:3:force:R:3 Energy="-508.95060862"
C     4.703842283487360e-02   7.083864512616650e+00   9.917294493025140e-02 -1.18820227e+00   1.33162542e+00  -2.65144673e+00
C     1.816495841601111e+00   1.764853222351037e+00   7.100453296316491e+00 -4.35278680e-01   6.65808870e-01   4.63097910e-01
C     6.307673028702239e-02   1.773229503229540e+00   1.745398820240395e+00 -3.10620672e+00   1.21528569e+00   1.97560976e+00
C     1.774727887633610e+00   4.621285063178680e-02   1.817939775487911e+00  5.60433330e-01  -1.88132462e+00  -4.32646850e-01
C     9.406507412188848e-01   9.072494006751239e-01   9.850059477673869e-01 -4.32676190e-01  -5.78046800e-01  -3.97136319e+00
C     2.713923534742181e+00   2.684392730315010e+00   8.822414723083806e-01 -2.31802100e-01  -9.23614490e-01  -4.60414600e-02
C     8.766090425611973e-01   2.751646511901997e+00   2.595351420145044e+00  1.17687993e+00  -1.82761067e+00   1.83584099e+00
C     2.644782182612679e+00   8.567653121436577e-01   2.685898720731283e+00  1.61998011e+00   2.59174773e+00  -2.07813560e-01
C     3.531939484583920e+00   7.064867466417379e+00   3.923856394662620e-02  6.36533730e-01   5.70592810e-01  -1.42811850e+00
C     5.279498127953176e+00   1.761561382919941e+00   6.009026869168180e-02  1.65374072e+00  -1.03933411e+00  -2.54397732e+00
C     3.628990494277875e+00   1.721960360503921e+00   1.799965844556336e+00 -2.80104119e+00   1.50314594e+00   6.65789400e-02
C     5.308367067150199e+00   1.523199907436220e-02   1.791913352328174e+00  1.94243715e+00  -2.74528780e+00   1.86953814e+00
C     4.445403636987258e+00   8.011432557424556e-01   9.382309630748106e-01 -8.12675500e-01   2.66418859e+00  -1.45933264e+00
C     6.221463643019856e+00   2.627428816975830e+00   8.139922272176889e-01  1.41398600e-02   3.91676430e-01   3.04609167e+00
C     4.483976568239747e+00   2.720322536784705e+00   2.634046474098145e+00 -1.82374544e+00  -4.15349586e+00   2.66335507e+00
C     6.166630692613700e+00   8.552408398285726e-01   2.727941486317273e+00  1.85959274e+00   1.14795717e+00  -2.30283832e+00
C     3.755017140592380e-02   3.542459239219259e+00   1.303805551692540e-02 -1.71778779e+00   3.31750000e-03  -1.21691139e+00
C     1.710201323469013e+00   5.349550069020300e+00   3.611654473192220e-02  1.73193214e+00  -1.72957900e-02  -1.50211758e+00
C     7.103904435498501e+00   5.260082608914265e+00   1.755616253661704e+00 -1.82188100e-01   2.36100913e+00   8.19753760e-01
C     1.815391121641736e+00   3.580609859083894e+00   1.768218207450893e+00 -2.04450570e-01  -4.29171300e-01  -1.26975347e+00
C     9.081643968347703e-01   4.448772460635328e+00   9.186912598927284e-01 -6.01461240e-01  -1.13431964e+00  -1.70642432e+00
C     2.613708566140064e+00   6.221532950140402e+00   9.116832082001228e-01  1.17496412e+00   4.53499070e-01  -4.36403120e-01
C     9.045004314795175e-01   6.251035605213997e+00   2.628822636483160e+00 -1.19733101e+00  -2.66239861e+00   1.71636597e+00
C     2.711010432068278e+00   4.449522754642870e+00   2.573405373737640e+00 -8.85681610e-01  -5.98208710e-01   4.21631780e+00
C     3.606514088458793e+00   3.626434732009082e+00   2.147625075644880e-02 -2.84300530e+00  -1.45532755e+00  -1.44913602e+00
C     5.360278029354178e+00   5.371357145765484e+00   7.097135084637475e+00  1.57636900e-01  -2.13035610e+00   6.39772870e-01
C     3.548655082543303e+00   5.343682421568621e+00   1.748395731216987e+00  9.50673840e-01   2.88781610e-01   9.11569840e-01
C     5.234116891683704e+00   3.502057737332001e+00   1.716522630452300e+00  5.20100428e+00   2.19544284e+00  -3.17072730e-01
C     4.466274179052257e+00   4.449785126521774e+00   8.678744260984200e-01 -7.46771260e-01   1.69814711e+00   6.84753000e-02
C     6.268053950892766e+00   6.188077372332049e+00   9.227872040905986e-01 -1.52294817e+00   1.04710118e+00  -7.12366160e-01
C     4.452536939086428e+00   6.224766927011370e+00   2.732561463430689e+00 -1.44930657e+00  -7.19444490e-01  -1.88763896e+00
C     6.160627558626884e+00   4.405121272263111e+00   2.555624152143293e+00  3.45486840e-01  -2.22881900e-02   3.57347277e+00
C     7.075614903829235e+00   7.048708813370273e+00   3.516213236884790e+00  1.26223478e+00   2.85624428e+00   1.68410410e-01
C     1.848653421439050e+00   1.904614905020358e+00   3.496194354933893e+00 -3.40786970e+00  -4.01570344e+00   8.16191310e-01
C     2.959996937926340e-02   1.810077149227929e+00   5.293063983849637e+00 -2.11357195e+00   1.53234200e-01   1.74868005e+00
C     1.745654296949358e+00   3.136079674646360e-02   5.380808717733714e+00  9.65953950e-01  -1.26753270e-01  -2.93145550e+00
C     8.891997650426462e-01   1.010801489360426e+00   4.421910797817741e+00  4.57124280e-01  -3.89908681e+00  -4.09091010e-01
C     2.667375877404992e+00   2.608101371293181e+00   4.461402563778092e+00  1.60290404e+00   4.85795479e+00  -2.37788370e-01
C     8.582401676688554e-01   2.644780263338572e+00   6.213792588749483e+00  2.49492073e+00   1.44784620e+00   8.41830900e-02
C     2.678360238542773e+00   8.488667883494448e-01   6.191745887077779e+00 -5.38391360e-01   1.04531953e+00   3.22769611e+00
C     3.496501083369946e+00   7.097266803708624e+00   3.569044881986511e+00  1.42735304e+00   6.76086950e-01   3.87351000e-02
C     5.318633833024491e+00   1.748680992216727e+00   3.608725731988554e+00  5.66389860e-01   1.41920039e+00  -1.73339292e+00
C     3.530459795331342e+00   1.770242686213069e+00   5.392678788329947e+00  5.29513880e-01  -3.54849190e-01  -1.45250038e+00
C     5.343177368141469e+00   7.015813450348603e+00   5.339284582662080e+00 -3.01837530e-01   3.13191370e+00  -7.97271490e-01
C     4.364668731901442e+00   8.847604840322300e-01   4.424898254592249e+00  2.46878525e+00   4.10097600e-02   2.18481466e+00
C     6.254545388882621e+00   2.709681014869886e+00   4.419904232280568e+00 -2.60037380e+00  -2.39765897e+00   7.60198310e-01
C     4.436715865029546e+00   2.688986050843602e+00   6.290659374582401e+00 -5.52648890e-01  -1.31104771e+00  -2.25626769e+00
C     6.192943087615440e+00   8.857325608255150e-01   6.263588937392464e+00  9.54251280e-01  -9.57292090e-01  -1.25785441e+00
C     7.037311950467853e+00   3.549496577613059e+00   3.492054907189589e+00  2.11054092e+00   1.06007212e+00   1.45146540e-01
C     1.767466207421923e+00   5.266025534561490e+00   3.518861764068776e+00  1.29205078e+00   3.37049076e+00   1.95717000e-03
C     3.361878719170660e-02   5.349693730241450e+00   5.244000229241873e+00 -1.42020087e+00  -6.35045990e-01   2.95020114e+00
C     1.785589344144291e+00   3.627948897111367e+00   5.280200795529163e+00 -6.14091500e-02  -3.31627131e+00   2.73115732e+00
C     9.070913804402813e-01   4.463035652790811e+00   4.461750663233794e+00 -9.59725390e-01  -6.90341940e-01  -3.55048124e+00
C     2.682829446012419e+00   6.259129610630260e+00   4.462470817529425e+00 -2.59044226e+00  -1.69290107e+00  -5.27168080e-01
C     8.813440339526056e-01   6.219048201013580e+00   6.193556757740224e+00 -8.27876630e-01   9.29699770e-01   1.58970127e+00
C     2.624914141389779e+00   4.506665658063621e+00   6.237463138484500e+00  1.12857317e+00  -1.27494874e+00  -4.45760180e-01
C     3.623028091552673e+00   3.568545870718587e+00   3.574481759027418e+00 -2.03790271e+00  -4.75367340e-01  -1.52697297e+00
C     5.313387461709800e+00   5.278126273471742e+00   3.617532712193603e+00  1.35738280e-01   1.22226979e+00  -4.21543106e+00
C     3.510881919919790e+00   5.361136726806674e+00   5.322565003986029e+00  1.34613177e+00  -3.00609980e-01   1.50151394e+00
C     5.286385052124337e+00   3.511249069948113e+00   5.307223179782189e+00  2.01605249e+00   1.79905033e+00   2.17215116e+00
C     4.429172904534786e+00   4.463120953862251e+00   4.474172631762244e+00 -4.09645670e-01  -1.45139413e+00   4.26308700e-02
C     6.232291689944224e+00   6.165867176940086e+00   4.338881791499772e+00  1.60576650e-01   4.99022340e-01   4.20945084e+00
C     4.458599570570574e+00   6.196720005806124e+00   6.227067141486976e+00 -9.63246150e-01   1.25281000e-01   1.51755120e-01
C     6.211783748517071e+00   4.432842059038551e+00   6.231628118692647e+00  1.03139982e+00   4.54543000e-01  -1.46889508e+00
