32
Lattice="9.86 0 0 4.93 8.53901048131456 0 0 0 30 " PBC="1 1 1" Properties=species:S:1:pos:R:3:force:R:3 Energy="-246.84598511"
C     9.746097082799999e+00   5.156310510983633e-01   4.691931300000000e+00 -1.17002700e-02  -6.64228703e+00  -2.24813129e+00
C     1.056257577900000e+00   1.079565149729466e+00   4.866719700000000e+00  4.85386197e+00   5.34566238e+00   4.94413830e-01
C     2.349590869200000e+00   4.998922885420464e-01   4.448525399999999e+00 -7.54352170e-01  -1.71058541e+00  -9.90105620e-01
C     3.687934616800000e+00   1.055607162635626e+00   4.349376300000000e+00 -5.15035939e+00   5.36486076e+00   2.26278910e+00
C     4.860042314000000e+00   4.299548894472832e-01   4.324284000000000e+00  3.98306189e+00  -1.30786993e+00  -4.68493580e-01
C     6.087361722100000e+00   1.240239781986806e+00   4.496187600000000e+00  3.05282630e-01  -6.20390029e+00  -4.92007200e-02
C     7.314369603499999e+00   3.878166659206840e-01   4.611999300000001e+00 -1.38913643e+00   4.84543130e+00   3.00840930e-01
C     8.593475506399999e+00   1.178484889684502e+00   4.827678600000000e+00 -5.16463204e+00  -1.90591242e+00  -1.26006026e+00
C     1.087681506360000e+01   2.626241326768259e+00   5.250891600000000e+00  2.50289581e+00  -8.87794780e-01  -2.46537519e+00
C     2.345918216400000e+00   3.225695232683123e+00   5.118010200000000e+00  1.46092808e+00  -9.89120000e-01  -1.03875458e+00
C     3.643067229100000e+00   2.543398835744967e+00   4.613187900000000e+00 -2.09147680e+00  -1.51382015e+00   3.91437360e-01
C     4.814008439000000e+00   3.257061409099098e+00   4.368344700000001e+00 -1.03283464e+00   2.36106340e-01   1.53901532e+00
C     6.037255667100000e+00   2.578989943766236e+00   4.461571800000000e+00  9.28833070e-01   1.82978839e+00  -3.19532160e-01
C     7.282806954700000e+00   3.267447834496445e+00   4.548018900000000e+00  1.85526531e+00  -3.23000151e+00   4.22606010e-01
C     8.509405596799999e+00   2.536451069867915e+00   4.745296200000000e+00  6.09571030e-01   4.78038521e+00   9.61919170e-01
C     9.724161491499999e+00   3.482910978136189e+00   4.956107400000000e+00 -1.59305390e+00  -5.83582249e+00   1.97618600e-01
C     1.232028687070000e+01   4.626230856422375e+00   5.108334600000000e+00 -1.26981630e+00   2.67369086e+00  -1.53284947e+00
C     3.642939739300000e+00   5.332424442699755e+00   4.575265200000000e+00 -4.94037410e+00   4.36773482e+00  -5.58762930e-01
C     4.827564361400000e+00   4.705946020247472e+00   4.336511100000000e+00 -4.85176959e+00  -5.52274653e+00   9.81287640e-01
C     5.965214513799999e+00   5.195343523349179e+00   4.150424699999999e+00  9.44146598e+00   8.82660975e+00  -1.81717864e+00
C     7.370909653600000e+00   4.592689025526202e+00   4.368389100000000e+00 -4.73718662e+00   5.96102279e+00  -1.94822506e+00
C     8.407297507399999e+00   5.563989171451110e+00   4.317888600000000e+00  3.96659572e+00  -1.80871769e+00   1.37767684e+00
C     9.698965444700001e+00   4.855469644109084e+00   4.757694600000000e+00  8.55105110e-01   6.94186840e-01   1.08705517e+00
C     1.103736366880000e+01   5.433317035636089e+00   5.106374400000000e+00 -1.50892759e+00   8.33103310e-01  -3.63711092e+00
C     1.329601304650000e+01   6.879058010076252e+00   4.184247000000000e+00  2.95755441e+00  -3.64609682e+00   3.35305330e+00
C     4.754779468300000e+00   7.541534082838756e+00   4.149198000000000e+00 -2.55665200e+00   3.19610448e+00   1.40817582e+00
C     5.931249722500000e+00   6.919213902319919e+00   3.939761700000000e+00  4.20053298e+00  -3.92233300e+00   1.05897284e+00
C     7.263074974800000e+00   7.661359711371767e+00   4.006470000000000e+00 -3.28105772e+00   1.17863903e+00   1.44167956e+00
C     8.496110027699999e+00   7.045708071087286e+00   4.139946600000000e+00 -5.41285280e-01  -6.40483964e+00  -8.17484200e-02
C     9.800548587700000e+00   7.507793890729132e+00   4.275401100000000e+00 -1.44254171e+00   3.00185577e+00   7.16509650e-01
C     1.096080407190000e+01   6.810781277739640e+00   4.610162100000000e+00 -1.42754916e+00  -2.52333688e+00   1.60577828e+00
C     1.207950877660000e+01   7.550636753400540e+00   4.551095699999999e+00  5.82375169e+00   9.20002540e-01  -1.18530058e+00
