32
Lattice="9.86 0 0 4.93 8.53901048131456 0 0 0 30 " PBC="1 1 1" Properties=species:S:1:pos:R:3:force:R:3 Energy="-256.89614312"
C     9.837228083499999e+00   8.748053995560880e-02  -2.130027000000005e-01 -1.43145941e+00  -4.33268000e-01   4.28691490e-01
C     1.182857266400000e+00   8.065614570197184e-01  -1.096415999999998e-01  9.53363860e-01  -1.15667004e+00  -1.28731305e+00
C     2.399160786700000e+00   6.914540587274320e-02  -3.114966000000017e-01  2.06177714e+00   6.94614400e-01   9.83685100e-01
C     3.676925285900000e+00   7.796428242122520e-01  -2.211335999999982e-01 -1.51399405e+00   7.62203390e-01   5.02216620e-01
C     4.904580624200000e+00   6.211856875864640e-02  -1.969536000000005e-01 -8.78093880e-01   1.12852721e+00  -4.97820610e-01
C     6.109455517100000e+00   8.005488835704360e-01  -1.962474000000007e-01  8.79781060e-01  -2.41045200e-01   5.14517300e-02
C     7.338804261100000e+00   6.451896999467920e-02  -2.140293000000000e-01  8.27627780e-01   3.13063000e-01   8.59385540e-01
C     8.578224551400000e+00   7.765449566002128e-01  -1.889307000000002e-01  3.54413340e-01   4.27373890e-01  -1.97611020e-01
C     1.106908836670000e+01   2.208143621883399e+00   1.561620000000000e-02 -7.23126650e-01   4.81340680e-01   3.86201180e-01
C     2.418865158600000e+00   2.908155220743573e+00   1.693995000000000e-01  1.22693783e+00   9.33991430e-01  -9.65360660e-01
C     3.660384593600000e+00   2.231033891106821e+00  -2.062349999999924e-02  1.85028800e-02  -1.45775396e+00   6.88511900e-02
C     4.882952073300000e+00   2.956624778980673e+00  -5.500560000000121e-02  2.33451280e-01  -1.08445770e+00  -2.09458780e-01
C     6.135990453299999e+00   2.238044674881215e+00  -1.603776000000003e-01 -1.81615747e+00  -9.77961540e-01  -3.02136190e-01
C     7.336261071299999e+00   2.926790159484391e+00  -2.233601999999983e-01  1.71872253e+00  -2.46133500e-01   2.24828620e-01
C     8.591568385200000e+00   2.198453979741219e+00  -1.747164000000012e-01 -6.10122900e-02   6.96968640e-01   1.41492630e-01
C     9.840465466600000e+00   2.926749428404402e+00  -3.010049999999964e-02 -1.27559118e+00  -7.67179710e-01  -7.62355500e-02
C     1.231271123550000e+01   4.353775795135967e+00   2.078274000000000e-01 -8.80562660e-01  -1.79689900e-01   1.34578160e-01
C     3.677270287300000e+00   5.084610916296112e+00   1.445529000000000e-01 -6.96075170e-01  -1.16083809e+00  -1.17607880e-01
C     4.855595552600001e+00   4.356137770824840e+00  -5.658629999999931e-02  2.43006975e+00   9.70790530e-01  -2.62670100e-02
C     6.130732213899999e+00   5.065460819053034e+00  -2.506878000000015e-01 -1.51180754e+00   2.23024380e-01   3.80738910e-01
C     7.334643439699999e+00   4.340182373572646e+00  -2.642328000000020e-01  7.09588630e-01   3.25957960e-01   3.94414690e-01
C     8.576207737699999e+00   5.042865231081278e+00  -1.614627000000013e-01  3.33420000e-01   1.54103170e-01  -3.26065700e-01
C     9.798061205500000e+00   4.336641416706800e+00   1.565490000000000e-02  1.45587204e+00   5.85212710e-01  -3.72130000e-03
C     1.107661864590000e+01   5.064219076149032e+00   1.364877000000000e-01 -1.67998102e+00  -3.83589410e-01  -7.02017210e-01
C     1.354624372540000e+01   6.481567328402566e+00   1.086903000000000e-01  2.59798860e-01   1.27234433e+00  -1.65076265e+00
C     4.894607480700000e+00   7.193847777520403e+00  -2.127192000000022e-01  7.88846770e-01   2.54449770e-01   8.98568350e-01
C     6.146304506300000e+00   6.505206810405503e+00  -3.046812000000010e-01 -6.51479740e-01  -1.43105858e+00   1.30491630e-01
C     7.394700946199999e+00   7.173186873153100e+00  -3.668084999999977e-01 -1.71484428e+00   1.32066578e+00   1.98891330e-01
C     8.599268847999999e+00   6.467432875135232e+00  -2.597022000000031e-01  4.80595300e-02  -2.15326690e-01  -4.97770000e-02
C     9.806671302600002e+00   7.198950092452518e+00  -2.055047999999999e-01  1.18273757e+00  -1.24019405e+00   2.65806000e-01
C     1.102931997940000e+01   6.470844551382411e+00  -5.650020000000211e-02  2.11912258e+00   6.74028290e-01   8.43144850e-01
C     1.233084313460000e+01   7.193151250435551e+00  -5.772300000000286e-03 -2.76790810e+00  -2.43493170e-01  -4.81283420e-01
