32
Lattice="9.86 0 0 4.93 8.53901048131456 0 0 0 30 " PBC="1 1 1" Properties=species:S:1:pos:R:3:force:R:3 Energy="-257.57852496"
C     9.796383723700000e+00   6.620432303212728e-01   3.498576000000000e+00  1.69984963e+00   5.49385320e-01  -1.60550710e-01
C     1.205725761600000e+00   1.390749832339067e+00   3.473580900000000e+00 -1.04753238e+00  -3.55378970e-01   3.82424880e-01
C     2.441741295300000e+00   6.621072728998727e-01   3.467017800000000e+00 -7.34927590e-01   7.07775050e-01  -4.80287200e-01
C     3.674666310600000e+00   1.364795509985107e+00   3.402042900000000e+00 -1.73554930e-01   3.75870660e-01   5.10437910e-01
C     4.914553324000000e+00   6.676879431990768e-01   3.404738100000000e+00 -8.73399200e-01   4.43328800e-02  -1.36549470e-01
C     6.130411665300000e+00   1.390805421297292e+00   3.431505300000000e+00 -4.07791700e-01  -2.58759570e-01   5.31805200e-02
C     7.338131809100000e+00   6.578109551669655e-01   3.464973300000000e+00  3.57512490e-01   1.14034696e+00  -3.05074260e-01
C     8.571104349599999e+00   1.381816661135310e+00   3.483230700000000e+00  4.38183400e-01  -1.47946721e+00   3.62339590e-01
C     1.104684297420000e+01   2.821857760689968e+00   3.495994500000000e+00  1.28315880e-01  -6.63480350e-01  -1.46467470e-01
C     2.430101959700000e+00   3.499721386507746e+00   3.417705300000000e+00 -5.36859100e-01   5.90842060e-01   1.55803740e-01
C     3.648729728500000e+00   2.794223388024068e+00   3.430484700000000e+00  6.30462100e-02  -1.81859520e-01  -2.31590860e-01
C     4.851384149399999e+00   3.532684614053795e+00   3.443810700000000e+00  1.72199364e+00  -5.83032620e-01  -3.32420640e-01
C     6.106669376899999e+00   2.813468780624102e+00   3.441548100000000e+00 -2.45374990e-01  -3.24928420e-01   2.65776680e-01
C     7.344919580999999e+00   3.483863675535443e+00   3.497426700000000e+00  3.56809790e-01   7.69839830e-01  -3.26122660e-01
C     8.599880069399999e+00   2.767716847862366e+00   3.532997100000000e+00 -9.50704010e-01   2.09317415e+00  -4.57179300e-02
C     9.811224995700000e+00   3.534663529732535e+00   3.554791500000000e+00  1.30310730e-01  -1.40078103e+00  -6.28477430e-01
C     1.228548466960000e+01   4.928136708683988e+00   3.375781200000000e+00 -1.49550620e-01  -3.64439290e-01   2.98399250e-01
C     3.641553127499999e+00   5.640903881399186e+00   3.388654200000000e+00  9.29698870e-01   1.40736872e+00   1.32798660e-01
C     4.900348613600000e+00   4.945856350891456e+00   3.412896300000000e+00 -8.08544380e-01   2.78673820e-01   1.11682330e-01
C     6.148812298699999e+00   5.649265963582041e+00   3.429850500000000e+00 -1.32584909e+00   3.82102400e-01  -1.96786300e-01
C     7.341912330300000e+00   4.920580111359713e+00   3.442615500000000e+00  1.05381415e+00  -5.62109240e-01   5.84756310e-01
C     8.584192267099999e+00   5.616435859209375e+00   3.483949800000000e+00 -8.59182300e-01   2.03302683e+00  -3.79340350e-01
C     9.801594881600000e+00   4.939914907399472e+00   3.468556800000000e+00  7.87442770e-01  -3.04245170e-01   3.01716800e-01
C     1.104850694780000e+01   5.629679949853959e+00   3.407832600000000e+00  1.32688220e-01   5.25950300e-01   1.23975060e-01
C     1.351141805750000e+01   7.100397188387703e+00   3.436521600000000e+00  3.40186720e-01  -1.67665100e+00  -1.73869200e-01
C     4.904739616700000e+00   7.781132056479382e+00   3.477423900000000e+00 -1.11011755e+00   4.05294000e-01  -3.05682920e-01
C     6.134611729500000e+00   7.090300491615942e+00   3.424685400000000e+00 -9.83677260e-01  -1.44758990e+00   3.68500260e-01
C     7.325040982899999e+00   7.787478419848327e+00   3.445935900000000e+00  1.94263893e+00   1.95789510e-01   5.59239400e-02
C     8.564283891799999e+00   7.075902780655509e+00   3.454253700000000e+00  5.63800710e-01  -7.07404920e-01  -3.07143360e-01
C     9.804243869200000e+00   7.793628642146547e+00   3.391256100000000e+00  9.72912730e-01  -1.33229730e+00   5.77867050e-01
C     1.107217301840000e+01   7.048419292304790e+00   3.421944900000000e+00 -1.74664240e+00   7.62449310e-01  -4.23736500e-01
C     1.227599165880000e+01   7.792816411469690e+00   3.417859500000000e+00  3.34502620e-01  -6.19797270e-01   2.94234290e-01
