32
Lattice="9.86 0 0 4.93 8.53901048131456 0 0 0 30 " PBC="1 1 1" Properties=species:S:1:pos:R:3:force:R:3 Energy="-256.46164781"
C     9.732975641299998e+00   1.896167116831988e+00   3.764256000000000e+00 -1.83178443e+00  -2.58617540e-01  -3.54244050e-01
C     1.093412710240000e+01   2.596165394835813e+00   3.809182200000000e+00  4.07001000e-01  -3.66960490e-01  -6.49718680e-01
C     2.284694962100000e+00   1.873746407794862e+00   3.783201000000000e+00  1.00459999e+00  -1.36184914e+00   4.93628950e-01
C     3.495962191599999e+00   2.564043857552778e+00   3.850904100000000e+00  1.20128059e+00   1.57197620e+00  -1.18880770e-01
C     4.704251355999999e+00   1.816425311294194e+00   3.781007100000001e+00  2.31606309e+00   1.02025652e+00   5.63774350e-01
C     5.993572120300001e+00   2.515146836451049e+00   3.735714300000000e+00 -1.13990470e-01   3.93845680e-01   1.58010000e-03
C     7.253748548700000e+00   1.805782715582446e+00   3.714903300000000e+00 -4.00965100e-01   1.55008630e-01  -1.58527520e-01
C     8.498783468099999e+00   2.573075483547369e+00   3.671295600000000e+00 -1.70588381e+00   5.08996580e-01  -2.21371620e-01
C     1.092358316350000e+01   3.999899390340453e+00   3.742976700000000e+00  8.71175570e-01   8.23679690e-01   4.97158730e-01
C     1.215619226440000e+01   4.724645257737205e+00   3.901825500000000e+00  3.39089230e-01   4.00389690e-01  -4.80027360e-01
C     3.539156928900000e+00   4.047078960264340e+00   3.926528700000000e+00  1.60458000e-03  -2.38331606e+00  -3.27421050e-01
C     4.797487565299999e+00   4.721468318888120e+00   3.849986400000000e+00 -5.78975000e-01  -2.23671160e+00  -4.22200710e-01
C     6.025779908900000e+00   3.961179418099103e+00   3.721554300000000e+00 -1.71996536e+00  -3.14308600e-01   1.62952400e-01
C     7.198599300900000e+00   4.716010866510143e+00   3.609085800000000e+00  1.33803101e+00  -1.83343777e+00  -3.77967840e-01
C     8.464930291999998e+00   4.012003693866168e+00   3.530909100000000e+00 -2.48088620e-01  -8.00142410e-01   1.01441450e+00
C     9.707214074199999e+00   4.708718124609700e+00   3.609601800000000e+00 -9.12584680e-01  -3.06507940e-01   3.63278460e-01
C     1.219479214310000e+01   6.159522732264501e+00   3.877657200000000e+00 -1.80193193e+00  -8.16311120e-01   2.62998600e-02
C     1.341957698890000e+01   6.837846013016418e+00   3.893668200000000e+00 -4.32873500e-02  -1.95274200e-01  -1.07417844e+00
C     4.762418848400000e+00   6.100370018015874e+00   3.743886900000000e+00 -4.25560720e-01   1.34204794e+00   9.55366200e-01
C     5.936435244400000e+00   6.827725833965837e+00   3.665766300000000e+00  1.78139784e+00   2.36448542e+00  -3.14881000e-02
C     7.148517501500000e+00   6.102297187291104e+00   3.615141300000000e+00  1.69198231e+00   1.96865976e+00   4.63894080e-01
C     8.422183741000000e+00   6.800869621324980e+00   3.726082500000000e+00  3.39494510e-01   3.14538170e-01  -5.45493210e-01
C     9.655224709900001e+00   6.110777961719632e+00   3.730359000000000e+00  1.56823140e+00   3.58521050e-01  -2.19267470e-01
C     1.093062044270000e+01   6.846495176731611e+00   3.796525800000000e+00 -1.13957748e+00  -2.39064709e+00   2.17651820e-01
C     1.341876965210000e+01   8.245015337827269e+00   3.775926900000000e+00 -4.96075200e-01   4.31882810e-01   1.91115960e-01
C     9.675004510800001e+00   4.934671954964752e-01   3.743886300000000e+00  1.93303192e+00  -1.29891156e+00   1.71950030e-01
C     5.996546487900000e+00   8.332748717883190e+00   3.712286400000000e+00  3.29460660e-01  -2.90842255e+00  -6.13799800e-02
C     2.370114262000000e+00   4.083698079757296e-01   3.739817400000000e+00 -2.46659166e+00   1.63937273e+00   1.56514500e-02
C     8.530772512599999e+00   8.229272732716236e+00   3.759581700000000e+00 -3.46185950e+00  -9.17177470e-01   3.20619980e-01
C     4.773836580499999e+00   3.959300921183608e-01   3.849025500000000e+00 -3.76312940e-01   1.16448424e+00  -9.18578150e-01
C     1.088122736430000e+01   8.209176427721870e+00   3.790019100000000e+00  3.30292684e+00   1.90239406e+00   2.13877000e-01
C     7.239155600799999e+00   3.522010509393376e-01   3.747072300000000e+00 -7.01936260e-01   2.02805638e+00   2.87531090e-01
