32
Lattice="9.86 0 0 4.93 8.53901048131456 0 0 0 30 " PBC="1 1 1" Properties=species:S:1:pos:R:3:force:R:3 Energy="-253.54664526"
C     5.159075703799999e+00   7.534609543070210e+00  -3.277350000000006e-01  2.63067363e+00  -1.30879542e+00   4.80092030e-01
C     6.426035960100000e+00   8.178007160887564e+00  -3.609375000000021e-01  9.76288720e-01   3.05157446e+00   1.27135446e+00
C     7.666594291599999e+00   7.447937732797161e+00  -2.771600999999997e-01 -4.41018220e-01   4.28449300e+00  -5.32305730e-01
C     8.896528522399999e+00   8.186275570125453e+00  -2.107776000000001e-01 -1.13289621e+00   2.48206526e+00   1.22140407e+00
C     1.013677863030000e+01   7.564788711639359e+00  -1.221818999999975e-01 -1.19736752e+00  -3.38934837e+00  -8.83983450e-01
C     1.131035157280000e+01   8.257052012389980e+00  -2.487408000000002e-01  2.22356883e+00   6.58542500e-02  -6.09140440e-01
C     1.251440202180000e+01   7.505525331814910e+00  -2.748422999999995e-01  2.94604681e+00   9.79663630e-01   1.42960727e+00
C     1.382851871410000e+01   8.167604767540618e+00  -3.906047999999984e-01 -3.28172361e+00   3.81571971e+00  -7.64570000e-02
C     1.550911987300000e+00   1.159313701085540e+00  -1.066004999999990e-01 -2.73972993e+00  -2.47933403e+00  -9.57096150e-01
C     2.692659117600000e+00   1.857487875670627e+00   1.312386000000000e-01  3.66456171e+00   8.74935020e-01   8.44623820e-01
C     3.952773526600000e+00   1.099550959928221e+00   4.109490000000000e-02  2.61801900e-02  -5.20585930e-01  -8.40251690e-01
C     5.221617437299999e+00   1.771401926906612e+00   1.081590000000000e-02 -1.45004278e+00   3.32159465e+00  -6.11439370e-01
C     6.436009892400000e+00   1.108696069372091e+00  -3.579213000000010e-01  2.95340340e-01   2.09197122e+00   1.44459549e+00
C     7.730835642600000e+00   1.869543250666291e+00  -3.772571999999990e-01 -1.90611796e+00  -3.06984675e+00   3.72932390e-01
C     8.938501507100000e+00   1.097836582794151e+00  -3.643047000000017e-01  3.93406610e-01   7.16392610e-01  -1.23192200e-01
C     1.016577624940000e+01   1.873278213850243e+00  -1.406267999999997e-01 -1.40491085e+00  -1.59379470e-01   5.85697090e-01
C     2.720066072200000e+00   3.311441414220139e+00   4.152504000000000e-01 -6.11314460e-01  -4.94669560e-01  -7.39501530e-01
C     3.889917604200000e+00   4.103326703147672e+00   3.376464000000000e-01  3.16288345e+00  -5.43400967e+00  -5.19525870e-01
C     5.137581643299999e+00   3.312833529098694e+00   1.127136000000000e-01  1.54540573e+00  -1.26350795e+00   4.71174370e-01
C     6.432059631300000e+00   3.983011106193319e+00   2.914020000000000e-02 -1.80109618e+00  -1.01886038e+00  -1.43278105e+00
C     7.667152712699999e+00   3.218863085007970e+00  -1.830746999999988e-01  2.46076570e-01   4.19599955e+00   1.20379695e+00
C     8.883846245299999e+00   4.079883276825356e+00   9.244199999999999e-03 -7.07142810e-01  -6.66621652e+00  -9.89512280e-01
C     1.007859555910000e+01   3.313082355864081e+00   1.491657000000000e-01  2.77879441e+00   1.62576020e-01  -1.08808280e-01
C     1.140085917500000e+01   4.070043860439357e+00   4.070412000000000e-01 -3.75556000e+00  -3.60122799e+00  -1.26474738e+00
C     3.944891787700000e+00   5.443090189300764e+00   1.981770000000000e-01  2.16377200e-01   3.79225995e+00   3.37823960e-01
C     5.185258884500000e+00   6.160271432703388e+00  -4.194180000000003e-02 -1.18054370e-01  -2.57801271e+00  -5.32900380e-01
C     6.392286708399999e+00   5.406135145135525e+00  -1.383764999999997e-01  1.91830167e+00   4.60660000e-01   6.53544180e-01
C     7.699880862800000e+00   6.113816568598939e+00  -2.756544000000005e-01 -3.37374177e+00  -3.16982371e+00   1.26578200e-02
C     8.874897851600000e+00   5.394943234879599e+00  -2.093780999999986e-01  2.89368235e+00   2.86457675e+00   9.86388100e-01
C     1.017604770720000e+01   6.073785858248909e+00  -1.024155000000029e-01 -3.40172265e+00   2.79745225e+00   8.85211100e-02
C     1.133191795640000e+01   5.439050981173409e+00   2.177634000000000e-01  2.89879269e+00   7.21311180e-01   8.17846410e-01
C     1.259031514780000e+01   6.204739098288931e+00   2.388579000000000e-01 -1.49394160e+00  -1.52548106e+00  -2.00041673e+00
