32
Lattice="9.86 0 0 4.93 8.53901048131456 0 0 0 30 " PBC="1 1 1" Properties=species:S:1:pos:R:3:force:R:3 Energy="-256.74861053"
C     1.236008089400000e+00   8.202453920941279e-01   3.591119400000000e+00 -1.90943334e+00  -7.52282520e-01  -9.81665000e-03
C     2.437259580200000e+00   1.490028808464997e+00   3.557730000000000e+00  1.50107790e-01   2.82677962e+00  -2.21916420e-01
C     3.647348243900000e+00   8.410862988023496e-01   3.586593600000000e+00  1.98644355e+00  -1.21303366e+00  -6.89754800e-02
C     4.887660223299999e+00   1.559149621987558e+00   3.553215000000000e+00  3.13641410e-01  -3.89314160e-01   4.20796170e-01
C     6.103423514199999e+00   7.928430243429696e-01   3.616900200000000e+00  2.28688650e-01   9.84784030e-01  -1.93086160e-01
C     7.316714212900000e+00   1.517826105450855e+00   3.640938900000000e+00  2.20537040e+00   3.02174650e-01  -4.13723610e-01
C     8.598466342599998e+00   8.194162541765201e-01   3.606181500000000e+00 -1.65391640e-01   1.64176065e+00  -5.39889850e-01
C     9.881654531999999e+00   1.548143776769990e+00   3.505640400000000e+00 -2.71989225e+00  -7.18944060e-01   1.03049920e+00
C     2.420976874800000e+00   2.943810712903860e+00   3.466798500000000e+00  4.70428970e-01  -1.82243130e-01   1.97458400e-02
C     3.636199689800000e+00   3.695548307037787e+00   3.403282800000000e+00  1.91438883e+00  -1.48388325e+00   8.49096750e-01
C     4.948630174200000e+00   3.000709555336293e+00   3.552878700000000e+00 -3.47132170e+00  -1.90982987e+00  -3.43194070e-01
C     6.149706699299999e+00   3.647148085565785e+00   3.695229000000000e+00  3.00737490e-01   1.66245165e+00  -1.03047302e+00
C     7.367100193299999e+00   2.937367944106596e+00   3.610659300000000e+00  5.01605280e-01   9.74121560e-01   8.18083170e-01
C     8.619737517800001e+00   3.711634778100850e+00   3.593301300000000e+00 -1.67229475e+00  -2.33193940e+00  -4.89980020e-01
C     9.802964238400000e+00   2.968291714389601e+00   3.531650100000000e+00  1.55901250e+00  -5.28453780e-01  -4.84244500e-02
C     1.104882281290000e+01   3.651288993307956e+00   3.508698900000000e+00  1.26075190e-01  -2.72391300e-02  -7.27999330e-01
C     3.671852315899999e+00   5.096479116182053e+00   3.424034700000000e+00  4.43954140e-01   6.36574770e-01   4.45217710e-01
C     4.933520020000000e+00   5.821584134359593e+00   3.536632800000000e+00 -2.15178060e+00  -7.77102800e-02   2.22472740e-01
C     6.118237621900000e+00   5.091052575022013e+00   3.661297200000000e+00  6.51899040e-01  -5.89601390e-01  -5.53445600e-02
C     7.334303959900000e+00   5.772418305207954e+00   3.673829400000000e+00  1.80454980e+00   1.89628138e+00  -6.13272000e-01
C     8.608189880199999e+00   5.110227008444959e+00   3.553637700000000e+00 -1.37735102e+00   2.87565100e-02   1.04554948e+00
C     9.812083555199999e+00   5.819886749856379e+00   3.572759400000000e+00  1.52770289e+00  -4.48489290e-01  -4.68931010e-01
C     1.104541529550000e+01   5.051503977203684e+00   3.444995400000000e+00  7.14132920e-01   2.24743043e+00   1.09416943e+00
C     1.231234025300000e+01   5.786919679755615e+00   3.498536700000000e+00 -1.52016503e+00   3.50870840e-01  -2.39260560e-01
C     4.878624815100000e+00   7.254626063194110e+00   3.592606800000000e+00 -1.50827540e-01  -7.77511150e-01  -6.96554200e-02
C     6.104944172700000e+00   7.931846957693058e+00   3.677810100000000e+00  1.68758398e+00   3.95601390e-01  -7.65987760e-01
C     7.375159461500000e+00   7.218212477683407e+00   3.635149500000000e+00 -8.15968070e-01  -2.56916730e-01   6.73600490e-01
C     8.625848499300000e+00   7.940577071227601e+00   3.641289600000000e+00 -1.19899381e+00   3.29019430e-01  -1.07492640e-01
C     9.853195959099999e+00   7.243405120302551e+00   3.648288600000000e+00 -6.06517400e-01  -1.14662277e+00  -6.69333810e-01
C     1.108947746630000e+01   7.907958563534630e+00   3.583273800000000e+00 -1.76776833e+00   1.31852678e+00   8.16395390e-01
C     1.228447214620000e+01   7.223893225185437e+00   3.613754100000000e+00  7.96283280e-01  -1.02511109e+00  -8.94431470e-01
C     1.347558159170000e+01   7.975817225918142e+00   3.565203900000000e+00  2.14509940e+00  -1.73600802e+00   5.35561910e-01
