32
Lattice="9.86 0 0 4.93 8.53901048131456 0 0 0 30 " PBC="1 1 1" Properties=species:S:1:pos:R:3:force:R:3 Energy="-254.84201756"
C     1.007119676300000e+00   1.196009415502501e+00   3.727977900000000e+00 -9.51708400e-01   1.78691836e+00  -1.65105154e+00
C     2.238648170500000e+00   1.901450202615964e+00   3.408708900000000e+00 -1.35166553e+00   1.32100480e-01   7.30788580e-01
C     3.446084839300000e+00   1.235292279314693e+00   3.345375000000000e+00  1.32728004e+00  -2.45373939e+00   5.43104590e-01
C     4.653990055300000e+00   1.936672766944916e+00   3.321177900000000e+00  2.07369468e+00   8.37480710e-01  -2.61523380e-01
C     5.938943135400000e+00   1.260568518846437e+00   3.423156300000000e+00 -1.35474205e+00   1.27889440e+00  -8.80799580e-01
C     7.184999698700000e+00   1.961464929972548e+00   3.432669300000000e+00 -4.36481900e-01  -1.60495569e+00   4.30317610e-01
C     8.374904005699999e+00   1.236892660658855e+00   3.587640600000000e+00  2.75090864e+00   1.80606740e-01  -1.00861200e-01
C     9.616970720000001e+00   1.982019267489061e+00   3.673226700000000e+00  3.92497070e-01  -1.61051272e+00  -7.76993020e-01
C     2.255147450800000e+00   3.319169218704539e+00   3.283700400000000e+00 -6.27409600e-01   1.11221500e-02   3.34878100e-01
C     3.464299808900000e+00   4.038558564827187e+00   3.217882200000000e+00  3.74325810e-01   1.99934195e+00  -6.32869700e-01
C     4.724862157700000e+00   3.373425152003307e+00   3.208769100000000e+00 -1.39540024e+00  -2.24605406e+00   2.76834100e-02
C     5.993838685399999e+00   3.958695676120785e+00   3.154629300000000e+00 -3.66522860e-01   4.38122934e+00   1.06618595e+00
C     7.249189333999999e+00   3.340775818482502e+00   3.356353200000000e+00 -1.63112022e+00   5.73339410e-01  -1.74953910e-01
C     8.423896965299999e+00   4.099187930158121e+00   3.456821100000000e+00 -7.61331470e-01   1.64198136e+00  -1.48093093e+00
C     9.613443551500000e+00   3.386688796981890e+00   3.424454700000000e+00  2.08173116e+00  -9.44462110e-01   1.27246155e+00
C     1.088660781840000e+01   4.036143988833756e+00   3.341302200000000e+00 -3.67125370e-01   1.16081910e-01   2.11893940e-01
C     3.430037738600000e+00   5.527734753095755e+00   3.212025900000000e+00 -2.39086174e+00  -2.75296299e+00   3.92306480e-01
C     4.609303894400000e+00   6.115964812855498e+00   3.404194500000000e+00  6.40204168e+00   2.75843152e+00   2.89089660e-01
C     5.937128895399999e+00   5.417508765534465e+00   3.266465100000000e+00 -4.41305070e-01   8.18405510e-01   1.05191568e+00
C     7.187134142200000e+00   6.209192875375090e+00   3.463256400000000e+00 -2.46934751e+00   3.31978270e-01  -1.16833717e+00
C     8.387646231600002e+00   5.580485173456794e+00   3.336253200000000e+00  2.80272384e+00  -4.40614272e+00   1.31990872e+00
C     9.704461063600000e+00   6.163975911619927e+00   3.403441500000000e+00 -3.69162968e+00   2.27619045e+00  -5.55744110e-01
C     1.086700145490000e+01   5.440210151846069e+00   3.382814400000000e+00  2.18380720e+00   1.12264887e+00  -8.82136310e-01
C     1.206398386150000e+01   6.260746041076727e+00   3.286717500000000e+00 -3.39796230e-01  -8.04209880e-01   1.04948952e+00
C     4.737869026000000e+00   7.570823144955470e+00   3.697569000000000e+00 -2.01515688e+00  -2.24791000e-03  -2.15401418e+00
C     5.920440648200000e+00   8.322719393904116e+00   3.669493200000000e+00  2.79650887e+00  -6.98302900e-01   4.95326710e-01
C     7.241028409199999e+00   7.633757018434747e+00   3.537659400000000e+00 -4.05181801e+00  -7.50283230e-01   3.46567710e-01
C     8.435588657499999e+00   8.289768804093578e+00   3.435814800000000e+00 -8.53115100e-02   2.40298546e+00  -3.86092060e-01
C     9.643808259599998e+00   7.597091702895094e+00   3.344099100000000e+00  1.86920169e+00   9.11810030e-01   5.22673700e-01
C     1.085610058400000e+01   8.419585928789235e+00   3.364377000000000e+00 -8.29717740e-01  -2.31317955e+00   7.08719750e-01
C     1.203381783240000e+01   7.694765686611203e+00   3.475194900000000e+00  4.10086182e+00  -1.27217384e+00  -1.58870933e+00
C     1.341536948040000e+01   8.371174350433295e+00   3.487753200000000e+00 -3.59713048e+00  -1.70231996e+00   1.90170477e+00
