2
Lattice="2.476 0 0 1.238 2.14427889977027 0 0 0 30 " PBC="1 1 1" Properties=species:S:1:pos:R:3:force:R:3 Energy="-16.12801241"
C     0.000000000000000e+00   0.000000000000000e+00   3.000000000000000e+00  0.00000000e+00   0.00000000e+00  -0.00000000e+00
C     1.238000000000000e+00   7.147596332567565e-01   3.000000000000000e+00 -0.00000000e+00   0.00000000e+00   0.00000000e+00
