32
Lattice="9.86 0 0 4.93 8.53901048131456 0 0 0 30 " PBC="1 1 1" Properties=species:S:1:pos:R:3:force:R:3 Energy="-255.10061557"
C     9.799672230900001e+00   3.283964244737176e-01   4.229552099999999e+00 -1.40986601e+00   1.24168367e+00  -1.14743707e+00
C     1.130846210100000e+00   1.048694065141123e+00   4.178750700000000e+00  2.57806486e+00  -8.23968580e-01  -1.17204740e-01
C     2.362476804600000e+00   3.398259753913024e-01   3.896330400000000e+00  8.76266790e-01  -5.78336510e-01   1.38900380e-01
C     3.623078346900000e+00   1.004568386925303e+00   3.969938400000000e+00 -2.72405291e+00   4.39123589e+00   4.32321520e-01
C     4.821970142500000e+00   3.624733951566728e-01   3.907379700000000e+00  1.95731462e+00   2.02887926e+00  -4.49975770e-01
C     6.081758974300000e+00   1.109536222613218e+00   3.918591600000000e+00  1.19648998e+00  -2.11812631e+00   4.26491220e-01
C     7.330044291999998e+00   2.969165938282544e-01   4.030904700000000e+00 -9.34527500e-02   2.75186973e+00  -5.41636220e-01
C     8.552140118600001e+00   1.053363964582530e+00   4.192076100000000e+00 -2.62468420e-01  -8.09519140e-01   2.84975640e-01
C     1.107307294060000e+01   2.437310425711762e+00   4.384714500000000e+00 -1.25244354e+00   1.16977727e+00   3.95008920e-01
C     2.387911019700000e+00   3.207361721012249e+00   4.381096200000000e+00  9.38024890e-01   4.36797830e-01  -8.89262140e-01
C     3.602990963300000e+00   2.518465608264206e+00   4.151959199999999e+00  1.60625476e+00  -1.55057193e+00  -4.58044890e-01
C     4.868394128399999e+00   3.237686394319978e+00   3.982073400000000e+00 -2.12662100e-01  -2.63993977e+00  -2.23228790e-01
C     6.145691214299999e+00   2.537094655087793e+00   3.880435499999999e+00 -2.37090447e+00  -1.81113163e+00   8.36797690e-01
C     7.347936642400000e+00   3.212691173623131e+00   3.998894400000000e+00  2.03214590e+00  -6.39817070e-01  -7.63184900e-02
C     8.587784610200000e+00   2.465841821428586e+00   4.240490700000000e+00 -1.53325970e-01   1.03017306e+00  -5.89345300e-02
C     9.867680792099998e+00   3.172642275180778e+00   4.434133800000000e+00 -2.84627012e+00  -1.50388710e-01  -1.03238003e+00
C     1.222548415390000e+01   4.678623492244301e+00   4.321932300000000e+00 -1.12968578e+00  -1.35851700e+00  -6.48449840e-01
C     3.587319725800000e+00   5.266697885842993e+00   4.039456800000000e+00  2.39799384e+00   3.02802498e+00   1.66822640e-01
C     4.863973101600000e+00   4.599302489142962e+00   3.879200700000000e+00 -1.12462840e-01   1.68673354e+00   3.13995010e-01
C     6.123313599199999e+00   5.306455860198293e+00   3.715125900000000e+00 -1.35799251e+00   2.01378407e+00   1.44354100e-02
C     7.368729854100000e+00   4.610903674171194e+00   3.822601800000000e+00 -1.28372759e+00   3.31434610e-01   6.12418140e-01
C     8.576466020400000e+00   5.296322616461676e+00   3.984559200000000e+00  4.18663490e-01   1.32578157e+00  -7.35618780e-01
C     9.773187284900001e+00   4.592985585360172e+00   4.299258300000000e+00  1.46152770e+00   1.83127071e+00  -3.79809490e-01
C     1.097003628570000e+01   5.435878653389985e+00   4.242241200000000e+00  7.11380100e-01  -1.41515967e+00   8.03519420e-01
C     1.350951187300000e+01   6.732429281547570e+00   4.034208300000000e+00  4.96894970e-01  -1.35841306e+00  -7.55414320e-01
C     4.864680951000000e+00   7.509717473619961e+00   3.950607300000000e+00  2.50431550e-01  -2.55927582e+00  -6.11570100e-02
C     6.086308526200000e+00   6.810099266972601e+00   3.675781800000000e+00  9.01466600e-02  -3.13405237e+00   6.72477130e-01
C     7.340891327300000e+00   7.439608013464026e+00   3.648552300000000e+00 -7.41223820e-01   1.69922254e+00   8.36762680e-01
C     8.578737468600000e+00   6.739952832901288e+00   3.737676000000000e+00 -3.18482900e-02  -4.58036730e-01   1.05818447e+00
C     9.749899690399999e+00   7.536484368211198e+00   3.898329300000000e+00  1.29425758e+00  -2.37381556e+00   1.41657720e-01
C     1.100363837690000e+01   6.889852344004230e+00   4.107373500000000e+00 -4.59003140e-01  -4.63969378e+00  -9.23696230e-01
C     1.230475727210000e+01   7.401128841318212e+00   3.971928600000000e+00 -1.86446744e+00   3.45209493e+00   1.36380037e+00
