32
Lattice="10.08 0 0 5.04 8.72953607014714 0 0 0 30 " PBC="1 1 1" Properties=species:S:1:pos:R:3:force:R:3 Energy="-256.94776016"
C     4.354528897843712e-03  -7.163287751755940e-03   3.013560998152625e+00 -3.40993740e-01   1.09394200e-01  -2.51841680e-01
C     1.254999770060687e+00   7.315649151925129e-01   3.003151389939194e+00  1.59489570e-01  -3.16397250e-01  -4.43333400e-02
C     2.522776709577816e+00   1.133071010417041e-02   2.990684264082433e+00  4.15961100e-02  -5.87542200e-01   1.74436540e-01
C     3.793076278179678e+00   7.232275749451089e-01   2.999695821669861e+00 -4.25224930e-01   1.53119200e-01  -8.58849700e-02
C     5.046722355082536e+00  -7.556162024404894e-03   3.006960090929629e+00  1.90408620e-01   4.61238780e-01  -6.40108500e-02
C     6.311740098712275e+00   7.329370921965859e-01   3.001486692043312e+00 -2.69599000e-01  -4.33824770e-01  -9.95096800e-02
C     7.571613473064335e+00   6.239799079264687e-03   2.991899983876129e+00 -6.89723060e-01  -1.28618210e-01   1.37405590e-01
C     8.810446928575587e+00   7.277210840532934e-01   3.000995677331213e+00  1.04185767e+00  -4.17370500e-02   8.60753400e-02
C     1.244363558358529e+00   2.180153092059011e+00   2.996461575524709e+00  1.11335288e+00   2.13988770e-01   1.50575320e-01
C     2.522144663377774e+00   2.920112485614863e+00   3.008849474182134e+00 -3.93679850e-01  -6.89201100e-01  -2.53236750e-01
C     3.782819670281528e+00   2.178076122444236e+00   2.990047768308589e+00  8.27841700e-02   6.03389740e-01   3.12524800e-01
C     5.043745352933588e+00   2.921727970048469e+00   3.015840091632113e+00  1.83781610e-01  -9.00076140e-01  -3.61751990e-01
C     6.311187845080021e+00   2.173035005699186e+00   2.990391272194894e+00 -3.64226950e-01   7.30788360e-01   1.74736710e-01
C     7.564615926672352e+00   2.911983624576065e+00   2.988701109530576e+00  2.23239120e-01  -2.29300740e-01   2.49184690e-01
C     8.827334094246456e+00   2.179408071316762e+00   3.010934012704774e+00 -2.26248220e-01   2.02485110e-01  -2.13687520e-01
C     1.009138597071929e+01   2.903267980774692e+00   3.003423030485183e+00 -7.01333910e-01   4.85234150e-01   6.79300000e-04
C     2.503628461200051e+00   4.372254652345477e+00   2.997748984589417e+00  1.09846600e+00  -4.80987390e-01   7.60589300e-02
C     3.776347474527225e+00   5.081059387245165e+00   2.997780049359946e+00  2.90571340e-01   7.94368180e-01  -7.33250000e-03
C     5.051825655436797e+00   4.362837610289612e+00   2.997965410732096e+00 -6.54588470e-01   1.09991180e-01   8.65573700e-02
C     6.305816955477267e+00   5.086975399192413e+00   2.996054511606510e+00  1.87302410e-01   2.05423530e-01   1.56571650e-01
C     7.563163121829121e+00   4.363611475618011e+00   3.014536184057933e+00  2.90994250e-01   1.33165640e-01  -3.30558580e-01
C     8.830116355495889e+00   5.100575382021286e+00   2.995899290549306e+00 -1.62214250e-01  -2.92319880e-01   2.25278720e-01
C     1.008982231953039e+01   4.370226867975411e+00   2.998059157981129e+00 -2.53281420e-01  -2.76035860e-01  -3.25364000e-03
C     1.134571973610882e+01   5.088628751980846e+00   2.997490030008221e+00 -4.40340430e-01   6.45971370e-01   2.45662600e-02
C     3.794773642540743e+00   6.557337863752500e+00   2.998469910137439e+00 -9.91343940e-01  -8.76726810e-01  -6.42010200e-02
C     5.040031733575369e+00   7.261333003702783e+00   2.986836744688596e+00  6.54444720e-01   6.16999960e-01   2.67749990e-01
C     6.311927512223256e+00   6.539778017912672e+00   3.002773591199195e+00 -2.89509400e-01  -1.30246900e-02  -1.36546480e-01
C     7.566285331120973e+00   7.266947322707778e+00   3.004459158094820e+00 -1.40992880e-01   7.17539790e-01  -1.97056600e-02
C     8.826807378696580e+00   6.556151036145133e+00   3.011536907355725e+00 -1.06292610e-01  -3.87596700e-01  -1.53946380e-01
C     1.007896254593581e+01   7.277999454577249e+00   3.002952887874623e+00  4.76732770e-01  -1.47892440e-01   8.46911900e-02
C     1.134752663793599e+01   6.550263772451630e+00   3.003354571796896e+00 -2.81284270e-01  -8.43460000e-04  -3.22824900e-02
C     1.259469667399168e+01   7.286407321953037e+00   3.003417651707236e+00  6.95856110e-01  -3.80973270e-01  -8.50088900e-02
