26
Lattice="8.88768389401873 1.33226762955019e-15 0 4.44384194700937 7.69696003302603 0 0 0 30 " PBC="1 1 1" Properties=species:S:1:pos:R:3:force:R:3 Energy="-207.98628639"
C     1.247975803372840e+01   6.612341214041343e+00   2.524440000000000e-02 -2.53478000e-01  -2.20947699e+00   5.41494180e-01
C     8.675870878579243e+00   6.379364316950882e+00  -6.186990000000137e-02 -6.07087400e-02   1.26926638e+00   5.90979650e-01
C     1.005181299374825e+01   6.029454279449458e+00   1.422351000000000e-01 -5.18839700e-01  -1.96142918e+00  -7.91888710e-01
C     1.041475058546153e+01   4.591642826475782e+00   1.863825000000000e-01 -6.64747720e-01   1.81989812e+00  -7.42313760e-01
C     6.288597924254825e+00   5.808488180607411e+00  -2.341769999999954e-02 -3.72841250e-01  -1.91168410e-01  -1.48676240e-01
C     7.609336901648469e+00   5.402834988267919e+00  -2.154840000000036e-02  2.97794652e+00   6.85788600e-02   1.05047020e-01
C     7.961721213116952e+00   4.033685421785864e+00   8.406960000000001e-02  1.15032656e+00  -9.94856660e-01   1.30438600e-01
C     9.353719595749048e+00   3.590666105467133e+00   1.537971000000000e-01  4.14802120e-01   3.75340649e+00  -4.70894930e-01
C     9.768228239961136e+00   2.301498036714417e+00  -3.339600000000331e-03 -8.43508000e-01  -3.67620519e+00   4.29849360e-01
C     3.973750172649615e+00   5.177007104622923e+00   7.365179999999999e-02 -2.13941806e+00   2.69082752e+00  -1.17904070e-01
C     5.307784191949403e+00   4.792153946159703e+00   1.216989000000000e-01 -5.87014100e-02   2.21931770e-01  -7.11388310e-01
C     5.636404969733247e+00   3.412363486375373e+00   1.198659000000000e-01 -7.48024980e-01   8.90239160e-01   3.95143230e-01
C     6.961907656823003e+00   3.018887962377747e+00   9.000600000000000e-02  1.19527693e+00   1.47220219e+00   4.95452100e-02
C     7.347069879816050e+00   1.685120320548797e+00   7.319280000000000e-02  1.49948932e+00  -1.36360790e+00   6.56162400e-02
C     8.705484904614462e+00   1.273546164736628e+00  -1.533239999999836e-02  1.67974369e+00   5.42249550e-01   1.87792320e-01
C     2.910217966549048e+00   4.254014058398226e+00   6.026040000000001e-02 -4.30821030e-01  -1.28076400e+00   1.04559981e+00
C     3.277767066396681e+00   2.866636551173125e+00   8.156160000000000e-02 -1.95179482e+00   7.02741850e-01  -1.07207590e-01
C     4.588524330458769e+00   2.471581226129341e+00   1.443831000000000e-01  1.95956261e+00  -1.19923791e+00  -1.84209860e-01
C     4.938364853480156e+00   1.098550005734555e+00   1.365102000000000e-01  9.57606720e-01  -1.41983868e+00  -1.06223668e+00
C     6.393553335435731e+00   6.834922058128083e-01   1.365141000000000e-01 -4.66584735e+00  -2.70739300e-02  -3.19611600e-01
C     1.108795975726022e+01   6.995520283698038e+00   7.419060000000000e-02  1.61883247e+00  -2.56879000e-02   3.79616390e-01
C     2.267919359458388e+00   1.896554042272090e+00   3.616800000000000e-03 -1.57945060e+00  -6.92303890e-01  -1.12680834e+00
C     2.589249436827143e+00   5.092755949225743e-01  -2.431133999999986e-01 -3.44992446e+00  -3.12443000e-03   1.46539505e+00
C     3.879031500281126e+00   1.185462692940510e-01  -1.323353999999988e-01  4.12993775e+00  -1.61109720e+00   1.00091803e+00
C     4.619194886544392e+00   7.568817960636547e+00  -8.622000000002572e-04 -4.16315240e-01   1.48134278e+00  -8.03774020e-01
C     5.969678231177244e+00   7.167729296503647e+00  -1.495670999999987e-01  5.70896660e-01   1.74318758e+00   1.99479030e-01
