26
Lattice="8.88768389401873 1.33226762955019e-15 0 4.44384194700937 7.69696003302603 0 0 0 30 " PBC="1 1 1" Properties=species:S:1:pos:R:3:force:R:3 Energy="-208.34503891"
C     5.064587565321282e-01   5.699830580711903e-01   3.466292400000000e+00 -2.53152340e-01   4.98660140e-01   7.60032200e-02
C     2.901288241164672e+00   2.133905198717200e-02   3.494396400000000e+00  4.06009480e-01   1.26687672e+00   1.45595550e-01
C     4.284695655795756e+00   4.439488781815541e-01   3.541941900000000e+00  4.24210900e-02  -6.79995000e-01   4.23473970e-01
C     9.777367803979395e+00   7.176468347952110e+00   3.634298400000000e+00 -5.58683100e-02  -7.41597900e-01   3.65571320e-01
C     1.116799099582812e+01   7.572309147766955e+00   3.653647200000000e+00 -2.20475051e+00  -1.03832519e+00  -2.67829570e-01
C     1.208631591016466e+01   6.493678104894037e+00   3.620744400000000e+00  2.28257180e+00   1.00222393e+00  -7.62612220e-01
C     4.580401434625348e+00   6.870922818367602e+00   3.519357300000000e+00  9.05298980e-01   5.34412580e-01  -3.14477560e-01
C     5.648694460665743e+00   5.867967208935240e+00   3.447687600000000e+00 -1.19913533e+00   4.28508330e+00   5.84797880e-01
C     6.976968283746822e+00   6.387107073893061e+00   3.530069400000000e+00  2.18192847e+00  -3.50756997e+00   1.44011770e-01
C     8.085408577694498e+00   5.373455460924609e+00   3.668234400000000e+00 -2.37524176e+00   8.53236810e-01  -8.05253140e-01
C     9.442794586970249e+00   5.759472938531567e+00   3.715519200000000e+00  1.21945000e-02   3.97254000e-03  -5.33785280e-01
C     1.042987662362698e+01   4.708973745781097e+00   3.645950700000000e+00  1.75967650e-01   7.45531450e-01  -2.36177410e-01
C     1.178177159961402e+01   5.111346108907800e+00   3.522673800000000e+00 -1.50543767e+00   8.39731790e-01   9.12461290e-01
C     3.893875223710262e+00   4.149710166974087e+00   3.466552800000000e+00  1.64330328e+00   3.33394960e-01  -6.70757500e-02
C     5.255006725190691e+00   4.568571727573060e+00   3.447465300000000e+00  1.55701968e+00  -2.70905651e+00  -3.76257660e-01
C     6.326231887032074e+00   3.579222804081732e+00   3.425646900000000e+00 -4.78209030e-01   1.40753289e+00   1.37760423e+00
C     7.694593297171930e+00   4.008873116585154e+00   3.569181300000000e+00  1.14224954e+00  -1.42339215e+00  -1.61955670e-01
C     8.748326252808702e+00   2.968190857565747e+00   3.567893100000000e+00 -9.50809870e-01   1.07765177e+00  -4.67938510e-01
C     1.012153789418405e+01   3.312585715327276e+00   3.585108900000000e+00 -1.44199857e+00   2.06908188e+00   3.74383040e-01
C     2.231759017954305e+00   2.349031537014886e+00   3.561689700000000e+00  1.40044266e+00   6.76792480e-01  -8.11012700e-01
C     3.624205607054711e+00   2.783060650079376e+00   3.491311200000000e+00 -2.50986010e+00  -3.94873190e-01   4.46214310e-01
C     4.628127982772082e+00   1.831524736066629e+00   3.554616600000000e+00 -2.26036060e-01  -1.29025026e+00  -1.68799020e-01
C     5.959505073925929e+00   2.238774123977142e+00   3.593430000000000e+00  2.62704640e+00  -1.31675840e+00  -1.01798781e+00
C     7.042529524900512e+00   1.250711516446027e+00   3.575961000000000e+00 -1.20777308e+00  -1.46499840e-01  -4.33624000e-03
C     8.390532273018900e+00   1.615708442271854e+00   3.448824000000000e+00  3.40976330e-01  -8.51805080e-01   1.02754209e+00
C     1.875663341247888e+00   1.007729494951769e+00   3.477083700000000e+00 -3.09157240e-01  -1.49405976e+00   1.17839860e-01
