32
Lattice="9.86 0 0 4.93 8.53901048131456 0 0 0 30 " PBC="1 1 1" Properties=species:S:1:pos:R:3:force:R:3 Energy="-256.36596478"
C     9.750149789300000e+00   1.884380208325815e+00   3.719901600000000e+00 -6.52465580e-01  -1.85440415e+00  -9.79413990e-01
C     1.098364249410000e+01   2.535581542430737e+00   3.612165600000000e+00  3.95517240e-01  -1.17746084e+00   8.10890100e-02
C     2.343649233200000e+00   1.821705152254187e+00   3.535720200000000e+00  1.56499565e+00   2.64878210e-01  -5.30249530e-01
C     3.620189366900000e+00   2.529181895636396e+00   3.512098200000000e+00 -1.71249433e+00  -1.11752913e+00   1.12197124e+00
C     4.797027152599999e+00   1.746959265577926e+00   3.736619700000000e+00 -3.89045150e-01   2.46353944e+00  -4.11981830e-01
C     5.976542766400000e+00   2.525871235883195e+00   3.852930900000000e+00  2.22032540e+00  -9.29959720e-01  -2.30582480e-01
C     7.267703110899999e+00   1.817446149997078e+00   3.818223300000000e+00 -6.86461500e-01  -2.12373260e-01  -2.86857290e-01
C     8.490203098899999e+00   2.559512119300936e+00   3.794820900000000e+00 -3.46857830e-01  -1.65073616e+00  -3.83085700e-02
C     1.098407372120000e+01   3.898694440400760e+00   3.654211200000000e+00  2.52818130e-01   3.97041804e+00   4.58203000e-01
C     1.221144277440000e+01   4.702611365874822e+00   3.651297300000000e+00 -2.09581260e-01  -1.54292474e+00   6.06783000e-03
C     3.613081785900000e+00   3.936938362807850e+00   3.583414200000000e+00 -1.18485654e+00   2.17825920e+00  -2.25052610e-01
C     4.821127999900000e+00   4.703877786519111e+00   3.639047100000000e+00 -1.24471674e+00  -1.77332739e+00   1.19815135e+00
C     5.985319349599999e+00   3.960275393059586e+00   3.862904400000001e+00  1.22221039e+00  -4.78726840e-01  -7.12676810e-01
C     7.231838593400000e+00   4.652114390379456e+00   3.897544800000000e+00  1.71957260e-01   2.84290560e-01  -5.70687600e-02
C     8.453572410100000e+00   3.944502559851454e+00   3.814355400000000e+00  1.14897735e+00   8.35010220e-01   4.69960280e-01
C     9.731374771699999e+00   4.601457137657380e+00   3.779525400000000e+00 -1.07310880e-01   1.15346433e+00  -1.38477930e-01
C     1.216279871090000e+01   6.147200257021023e+00   3.770967600000000e+00  1.81211923e+00  -1.47316345e+00  -9.37350390e-01
C     1.346613369040000e+01   6.825128266977821e+00   3.719957700000000e+00 -1.94716096e+00   5.64563020e-01  -4.78851490e-01
C     4.792558748499999e+00   6.094528737116820e+00   3.717352500000000e+00  8.85267420e-01   7.06431990e-01   8.04196600e-02
C     6.032564772100000e+00   6.799333367949523e+00   3.780285600000000e+00  6.90989600e-02   3.32778390e-01  -5.05977500e-01
C     7.257492785099999e+00   6.078295565853711e+00   3.878017800000000e+00 -4.98016580e-01  -1.42303230e-01  -6.90485490e-01
C     8.481022206399999e+00   6.771385101258378e+00   3.782380800000000e+00  6.81873140e-01  -4.03339920e-01   2.80460800e-01
C     9.724113374700000e+00   6.034514180540445e+00   3.808799100000000e+00 -1.18625460e-01   9.99805940e-01  -3.35665580e-01
C     1.092339483750000e+01   6.818447772128793e+00   3.757089900000000e+00  8.04214300e-01   3.75931090e-01   8.91570130e-01
C     1.348155980830000e+01   8.257233637142891e+00   3.616765800000000e+00 -6.24228700e-01  -1.04465175e+00   6.30441060e-01
C     9.765186979500001e+00   4.556174338131416e-01   3.588540300000000e+00  4.14186200e-02  -9.20606910e-01   5.28904630e-01
C     6.052579388900000e+00   8.206678767156470e+00   3.606542400000000e+00  5.79309610e-01   1.85405364e+00  -3.42011800e-02
C     2.390309070300000e+00   4.137491284078152e-01   3.516498900000000e+00 -1.63350963e+00  -1.78243292e+00   1.17487931e+00
C     8.514580962899998e+00   8.188807813683297e+00   3.682434900000000e+00 -1.75916060e-01   1.66268050e-01   8.12219900e-02
C     4.805781797300000e+00   3.478872282349464e-01   3.810389999999999e+00 -3.73562270e-01   1.48765263e+00  -5.55806640e-01
C     1.098217715020000e+01   8.293419145683671e+00   3.840874200000000e+00 -5.95871590e-01  -4.80434747e+00  -7.73159150e-01
C     7.286817854799999e+00   3.530909866115632e-01   3.695776200000000e+00  6.50578370e-01   3.67094314e+00   9.18826970e-01
