32
Lattice="9.992 0 0 4.996 8.65332583461411 0 0 0 30 " PBC="1 1 1" Properties=species:S:1:pos:R:3:force:R:3 Energy="-257.59275763"
C    -9.697561513306446e-03   5.874842901250413e-03   3.011666577554462e+00  7.99207030e-01  -4.00468760e-01  -1.52315440e-01
C     1.253284382825816e+00   7.290325791441600e-01   2.992997420633928e+00 -3.88938830e-01  -6.99030990e-01   1.32624750e-01
C     2.502688013980899e+00  -9.969420716115850e-03   3.004428669345837e+00 -4.29073030e-01   4.01024350e-01  -2.53790150e-01
C     3.737031771700226e+00   7.150907639806503e-01   2.985925372404838e+00  7.18044630e-01  -3.20239810e-01   3.60865490e-01
C     5.004371826774616e+00  -1.191242966750846e-02   3.012326973031194e+00 -4.37279750e-01   9.49958460e-01  -1.81012380e-01
C     6.241799543750482e+00   7.283645020487366e-01   3.008112921268324e+00  5.89331970e-01  -6.72780590e-01  -9.25056700e-02
C     7.508576057919852e+00  -1.117122913037539e-02   2.998702711874363e+00 -9.11210670e-01   5.94333540e-01   1.06261510e-01
C     8.742308511794485e+00   7.120227686592876e-01   3.005849878266336e+00  2.34108100e-02   5.00239440e-01  -6.11905500e-02
C     1.244164717045372e+00   2.158989729135636e+00   2.988369831981025e+00  4.64975990e-01   2.11736870e-01   1.03264360e-01
C     2.510363466184001e+00   2.876452530746895e+00   2.986464477098393e+00 -8.52931840e-01   5.63958500e-02   2.19083850e-01
C     3.743083179823313e+00   2.152814916786107e+00   3.008008402315959e+00  3.09334050e-01   7.81047700e-02  -2.62659840e-01
C     4.991174910853214e+00   2.875512954833842e+00   3.005151397444805e+00  2.65128780e-01   4.05982870e-01  -5.69123300e-02
C     6.246351579996844e+00   2.164555718560104e+00   2.995209412002393e+00 -8.07634500e-02   2.60811000e-03   1.63924150e-01
C     7.500587421246180e+00   2.884715680726697e+00   3.002685846274672e+00 -3.72382960e-01   9.35557100e-02  -1.33990030e-01
C     8.736537573523339e+00   2.164254538094617e+00   2.995792476950011e+00  3.34790440e-01  -3.13411770e-01   1.95616850e-01
C     9.989699792238364e+00   2.876959854470076e+00   3.011788034725151e+00 -7.08740600e-02   3.30661830e-01  -3.09321380e-01
C     2.490049085073253e+00   4.311759718178457e+00   3.007953292276505e+00  5.40491340e-01   6.88162820e-01  -2.79685870e-01
C     3.747144368526145e+00   5.059336890656586e+00   2.994160032133167e+00  8.99065600e-02  -8.66282540e-01   1.20927620e-01
C     5.007478235585667e+00   4.329035792468658e+00   2.996349384422669e+00 -6.86476130e-01  -3.34440200e-01   1.38106910e-01
C     6.254286988586686e+00   5.040716074163060e+00   3.012949402546402e+00 -3.87254080e-01   3.49751160e-01  -3.21216950e-01
C     7.500310216738440e+00   4.330659836802154e+00   2.998247588567437e+00 -2.30978670e-01  -5.41442880e-01   1.55010300e-01
C     8.734051972984805e+00   5.037158370982252e+00   3.004307978133366e+00  5.96146340e-01   8.41771570e-01  -9.62399700e-02
C     9.988841532047680e+00   4.327756488467533e+00   2.993051832161943e+00 -1.00676880e-01  -3.90547220e-01   1.56263840e-01
C     1.123461340274058e+01   5.040047121178998e+00   2.992374608859226e+00  2.16650020e-01   4.65695630e-01   1.45036760e-01
C     3.755952695962953e+00   6.490651582132863e+00   3.000060443297444e+00 -4.74143380e-01  -9.61122200e-02  -2.01544800e-02
C     4.995358466753205e+00   7.202317479960396e+00   3.002319845339069e+00 -2.03606700e-02   6.55794460e-01  -4.53506800e-02
C     6.229874029806846e+00   6.483902392430737e+00   2.986024960707585e+00  9.35204170e-01   8.00052000e-03   2.57393050e-01
C     7.495604570886215e+00   7.206914809085706e+00   2.994519702846917e+00 -3.86105850e-01  -1.32647200e-01   6.24201700e-02
C     8.738914195579103e+00   6.493672752643623e+00   3.005485932834300e+00  3.32555060e-01  -3.88410370e-01  -5.13472500e-02
C     1.000297336275395e+01   7.216663200651666e+00   3.007249340139977e+00 -5.13286680e-01  -4.68584010e-01   4.03729500e-02
C     1.124436865577916e+01   6.502436617498142e+00   3.005278929264754e+00  1.66152270e-01  -8.64620850e-01  -8.43290100e-02
C     1.249667431307972e+01   7.212048319390457e+00   2.999804482208002e+00 -3.85925000e-02  -1.44758590e-01   4.48494100e-02
