26
Lattice="8.88768389401873 1.33226762955019e-15 0 4.44384194700937 7.69696003302603 0 0 0 30 " PBC="1 1 1" Properties=species:S:1:pos:R:3:force:R:3 Energy="-206.45859489"
C     1.244385881215389e+01   6.721350026223020e+00   1.001901000000000e-01  2.43014591e+00  -5.02169762e+00   7.20411800e-02
C     8.765579027014418e+00   6.414037659463627e+00   2.279190000000000e-02  2.03004222e+00   2.06392697e+00  -1.39080136e+00
C     1.014597773792771e+01   6.022425723428463e+00  -1.934979000000006e-01  2.00868100e-02   1.09226780e+00   2.63692156e+00
C     1.049803840438600e+01   4.651218374682387e+00  -5.530740000000023e-02 -1.22964217e+00   1.83104725e+00   9.36894400e-02
C     6.365953169753371e+00   5.882020241588413e+00   2.253780000000000e-02  1.04888153e+00  -1.86042799e+00   1.28999695e+00
C     7.755835306019115e+00   5.507805282491456e+00   6.161010000000000e-02 -1.53874845e+00  -3.49080461e+00  -1.06698350e-01
C     8.142910780654660e+00   4.068586517345897e+00   8.483910000000000e-02 -4.41859330e+00   2.35058363e+00  -2.27100150e-01
C     9.435989952680709e+00   3.740930931288012e+00  -6.509129999999885e-02  2.18517264e+00  -4.42486477e+00   1.43278363e+00
C     9.752056832490236e+00   2.297606145844848e+00   1.398396000000000e-01  3.04276900e-01  -1.13350680e-01  -1.14962442e+00
C     3.914046534064318e+00   5.305776938046423e+00   1.324788000000000e-01  1.21010833e+00  -1.40310168e+00   6.57741570e-01
C     5.343252849802756e+00   4.875400648272969e+00   1.240776000000000e-01 -1.97320748e+00   1.95974805e+00  -2.71716320e-01
C     5.663446636813367e+00   3.529981502289806e+00   1.635999000000000e-01 -1.87629600e-01  -2.75308440e+00   2.52958570e-01
C     7.075378583514846e+00   3.102933224094125e+00   2.012643000000000e-01 -1.60215942e+00  -1.49389040e-01  -1.02930169e+00
C     7.314835005810878e+00   1.701634379201963e+00   1.053168000000000e-01  2.66472056e+00  -2.88213990e-01   6.72307530e-01
C     8.729353401834473e+00   1.266684786687485e+00   1.377735000000000e-01 -6.45670370e-01   2.21636231e+00  -2.19698920e-01
C     2.912901913774123e+00   4.262562994933948e+00   2.403834000000000e-01  1.36373886e+00   7.06075050e-01  -2.74279758e+00
C     3.205193883704671e+00   2.871770731391536e+00   5.712000000000000e-04  3.27430242e+00   1.44601887e+00   2.44358461e+00
C     4.564437818349890e+00   2.473751307040199e+00   1.321596000000000e-01  3.18635275e+00   8.94875320e-01  -2.21745217e+00
C     4.988416600757382e+00   1.094795043783920e+00  -1.631780999999997e-01 -5.91107930e-01   1.21161970e+00   3.00081483e+00
C     6.341478306909421e+00   6.695044433806892e-01   3.916200000000000e-02 -1.03285685e+00   4.37245640e+00  -8.50291150e-01
C     1.114857056187375e+01   7.072385821098433e+00   5.516580000000000e-02 -3.28943521e+00  -2.91911824e+00  -1.43468279e+00
C     2.262966608733029e+00   1.895295127489583e+00   9.517529999999999e-02 -3.62769212e+00  -1.25241690e+00  -3.69224300e-02
C     2.580678110044541e+00   5.082502828769779e-01   1.427196000000000e-01  2.54477668e+00   4.02850370e-01  -5.47763330e-01
C     4.014651423940973e+00   1.190562698656388e-01   2.950020000000000e-02 -2.78642029e+00  -5.64087970e-01  -5.26809930e-01
C     4.588260991707317e+00   7.585761971476989e+00   7.459890000000000e-02  4.05930808e+00   2.71117832e+00   9.30840720e-01
C     6.051000449925096e+00   7.215744318623593e+00   1.390413000000000e-01 -3.39875049e+00   9.81547840e-01  -7.32020010e-01
