32
Lattice="10.044 0 0 5.022 8.6983591556109 0 0 0 30 " PBC="1 1 1" Properties=species:S:1:pos:R:3:force:R:3 Energy="-257.26619215"
C    -3.494211057631214e-03  -6.474103607877060e-03   2.989435067673530e+00  4.33809230e-01   8.61118500e-01   2.42523350e-01
C     1.262337575484655e+00   7.397346630495908e-01   3.012347171362887e+00 -4.99382590e-01  -1.05990015e+00  -1.86065290e-01
C     2.503406408523923e+00   8.501255637935591e-03   3.006456015109864e+00  3.44159030e-01  -5.28523100e-01  -7.66693200e-02
C     3.764098223407486e+00   7.268371138624294e-01   3.003249335816063e+00 -1.39078050e-01  -5.54034880e-01  -3.20746000e-02
C     5.014629664249107e+00  -1.115426973553515e-02   3.004148651363807e+00  2.12262130e-01   4.77149780e-01   1.39020400e-02
C     6.269373790172587e+00   7.289159430218303e-01   3.013404329286185e+00  4.32667170e-01  -3.43606440e-01  -5.72136500e-02
C     7.541943008150226e+00  -2.339277030263940e-03   3.005293460987170e+00 -6.94148020e-01   4.35677220e-01  -3.62180500e-02
C     8.788609847773893e+00   7.329388332556339e-01   3.003547665276805e+00  6.68893900e-02  -5.13369670e-01  -1.42233600e-01
C     1.265888887374311e+00   2.162757620820097e+00   3.002979772251433e+00 -2.80463480e-01   9.11841600e-01   8.81824200e-02
C     2.519907630070189e+00   2.894058346676123e+00   3.002485431311121e+00 -4.97802400e-01  -5.13219300e-02  -1.32121630e-01
C     3.756410545830564e+00   2.160134354333322e+00   2.991433032735515e+00  8.57242850e-01   7.72536550e-01   9.00836200e-02
C     5.023217498178837e+00   2.903013579173837e+00   2.988234869575772e+00 -1.80174540e-01  -3.93219830e-01   1.72533240e-01
C     6.285461161864397e+00   2.182793014044203e+00   3.011838931300458e+00 -6.63692910e-01  -2.77528600e-01  -2.37974530e-01
C     7.527559356227204e+00   2.909071144344244e+00   2.987270493901240e+00  4.84739280e-01  -5.27649930e-01   2.43837520e-01
C     8.787886745551511e+00   2.173736320257167e+00   2.992493607404198e+00  1.32906810e-01   3.71233730e-01   6.96543800e-02
C     1.005104192825596e+01   2.894778602549026e+00   3.002088801327970e+00 -2.04450370e-01   1.33917250e-01  -1.07385910e-01
C     2.502559134877999e+00   4.341145469215831e+00   2.989503796550013e+00  5.40154200e-01   4.13964500e-01   2.89600500e-01
C     3.765535897777903e+00   5.076614155941196e+00   3.008791660727459e+00 -1.66194090e-01  -1.61646710e-01  -3.16851910e-01
C     5.019824685397592e+00   4.344779326611883e+00   2.997337591654652e+00 -1.95418500e-02   3.18536870e-01   1.07108180e-01
C     6.276417229763383e+00   5.078685477949391e+00   3.014623311454099e+00 -4.95772400e-02  -6.53516770e-01  -1.49010190e-01
C     7.530369483436673e+00   4.341705579605727e+00   3.005255718445596e+00 -2.52453200e-02   6.86207340e-01  -5.97955400e-02
C     8.784436827975366e+00   5.075977303010569e+00   3.003941806025375e+00  6.07017600e-02  -4.65470230e-01  -1.35407870e-01
C     1.004227598413546e+01   4.351406727492053e+00   2.993875720340583e+00  1.79757110e-01  -1.58603190e-01   2.00215960e-01
C     1.130244343544157e+01   5.077144824577002e+00   3.012149052889743e+00 -3.49617960e-01  -1.76325200e-02  -3.06617830e-01
C     3.766891797320201e+00   6.526719616318990e+00   2.985404990102892e+00  3.79694400e-02   4.28082400e-02   2.35123980e-01
C     5.032412407745619e+00   7.260011946914454e+00   3.000624709898397e+00 -5.50096560e-01  -7.30294400e-01  -1.22139350e-01
C     6.278301667970292e+00   6.511869378595905e+00   3.005446197335274e+00  9.36537100e-02   7.33089850e-01  -2.57717600e-02
C     7.530190335416220e+00   7.243235647712021e+00   2.989189440063019e+00  3.41078300e-02   2.30453930e-01   1.78030830e-01
C     8.785782127232851e+00   6.513872965005372e+00   2.990001179498090e+00 -1.55679710e-01   3.62076130e-01   1.01009340e-01
C     1.003980755385436e+01   7.237937364954831e+00   2.998924740673037e+00 -1.45788780e-01   3.95560530e-01  -3.13055000e-02
C     1.129128511268889e+01   6.535909345036752e+00   2.997487828839950e+00  4.18785470e-01  -6.48609870e-01   7.24888200e-02
C     1.255002784689741e+01   7.253055348842551e+00   2.991037647731698e+00  2.91128450e-01  -6.12438000e-02   5.05623600e-02
