32
Lattice="9.86 0 0 4.93 8.53901048131456 0 0 0 30 " PBC="1 1 1" Properties=species:S:1:pos:R:3:force:R:3 Energy="-257.68172272"
C     1.221100508900000e+00   4.148334119585656e-01   3.469098600000000e+00  5.42862180e-01   1.96463771e+00   2.16402480e-01
C     2.470139081300000e+00   1.147819339078412e+00   3.478627500000000e+00 -5.90898470e-01   6.41530500e-02  -2.24703930e-01
C     3.717530047700000e+00   4.336477553095688e-01   3.469329900000000e+00 -1.01288407e+00   5.86312660e-01   1.37261080e-01
C     4.937243550400000e+00   1.145325350287518e+00   3.508433100000000e+00  9.58935600e-02   4.38281190e-01  -2.35783420e-01
C     6.169647661899999e+00   4.394997099717224e-01   3.521171400000000e+00 -2.45866190e-01   2.09985820e-01   2.59973930e-01
C     7.404230882699999e+00   1.164618134395716e+00   3.542721600000000e+00 -1.36331643e+00  -2.26943520e-01  -1.49891640e-01
C     8.597041572600000e+00   4.292099461730080e-01   3.486326400000000e+00  9.60918740e-01   4.53117530e-01   5.72291330e-01
C     9.839663010499999e+00   1.133958304926647e+00   3.517494000000000e+00  5.39640660e-01  -4.38763430e-01  -5.78653520e-01
C     2.439141657000000e+00   2.592080161441972e+00   3.479914500000000e+00  6.97225860e-01  -1.15274685e+00   3.44512800e-01
C     3.675859715700000e+00   3.283275573541964e+00   3.529299600000000e+00  1.24409550e-01   3.49224900e-01  -1.94681490e-01
C     4.906402357799999e+00   2.574819576437909e+00   3.499863600000000e+00  1.54772240e-01   2.84560230e-01   2.24140070e-01
C     6.113829363799999e+00   3.325678847953863e+00   3.516081900000000e+00  1.55822156e+00  -1.10344483e+00   3.48075190e-01
C     7.377781136899999e+00   2.592181861056788e+00   3.575744700000000e+00 -1.08021497e+00  -4.49407530e-01  -5.10864180e-01
C     8.603159653300001e+00   3.254697042487290e+00   3.553885800000000e+00  1.08086545e+00   1.04552431e+00   9.40670500e-02
C     9.854621320699998e+00   2.540306689269950e+00   3.506874000000000e+00 -3.78782980e-01   1.21630669e+00   3.27784970e-01
C     1.108404293010000e+01   3.297025600557489e+00   3.509079000000000e+00 -9.45023030e-01  -6.83567450e-01  -1.31164700e-02
C     3.685702312800000e+00   4.712803016443122e+00   3.568038300000000e+00 -3.31909460e-01  -4.77430330e-01  -2.52824560e-01
C     4.904950620699999e+00   5.420557619226350e+00   3.547479000000000e+00  8.61984820e-01   1.26399101e+00  -4.43402600e-01
C     6.159181567699999e+00   4.744326908382662e+00   3.516163800000000e+00 -7.16495700e-01  -1.00011179e+00   3.07017490e-01
C     7.409939526900001e+00   5.409936285650697e+00   3.542205000000000e+00 -1.01659203e+00   1.52524305e+00  -1.30296330e-01
C     8.612224542900000e+00   4.693049467329423e+00   3.570169500000000e+00  7.69400730e-01  -2.70960840e-01  -3.59081550e-01
C     9.841997809200000e+00   5.413598752635674e+00   3.536111400000000e+00  2.76015700e-02   5.48577470e-01   2.13891400e-02
C     1.107477738950000e+01   4.715879024188331e+00   3.540174000000000e+00 -2.02580960e-01  -3.43503730e-01  -3.50044400e-02
C     1.230442390550000e+01   5.414372813935686e+00   3.551277600000000e+00  4.05082460e-01   1.29386940e-01  -1.05779800e-02
C     4.929695621800000e+00   6.858669500143260e+00   3.474640500000000e+00 -9.37466060e-01  -6.62462460e-01   5.79375940e-01
C     6.159142620699999e+00   7.569268618097587e+00   3.477082500000000e+00  7.14512500e-02  -1.37462918e+00  -7.97391900e-02
C     7.393513358499999e+00   6.862929868642047e+00   3.503368500000000e+00  2.76059830e-01  -1.12270746e+00  -1.40907040e-01
C     8.628385871700001e+00   7.556911303691350e+00   3.468588000000000e+00 -4.58591810e-01   2.16576820e-01   2.41753120e-01
C     9.848037798700000e+00   6.857903294732891e+00   3.499284600000000e+00 -2.82906840e-01  -1.37505314e+00   3.34217140e-01
C     1.105877791260000e+01   7.556253714494285e+00   3.557002800000000e+00  1.75058123e+00  -4.22423500e-02  -6.14338730e-01
C     1.231059828680000e+01   6.824219033141911e+00   3.531439200000000e+00 -4.60148290e-01   9.01597640e-01   2.81519100e-01
C     1.353860715540000e+01   7.553676982691839e+00   3.510792300000000e+00  1.06705640e-01  -4.73502100e-01  -3.15913760e-01
