26
Lattice="8.88768389401873 1.33226762955019e-15 0 4.44384194700937 7.69696003302603 0 0 0 30 " PBC="1 1 1" Properties=species:S:1:pos:R:3:force:R:3 Energy="-204.14956187"
C     1.284153818366163e+01   7.164866335250888e+00  -3.737297999999996e-01  3.55007672e+00  -1.39334061e+00   6.51961900e-01
C     9.027163872495997e+00   6.785325079813172e+00  -3.084440999999991e-01  3.96693824e+00   2.77427013e+00  -2.20237452e+00
C     1.041909759725020e+01   6.376795610480070e+00  -7.232031000000028e-01  1.17057090e-01   4.99273900e+00   2.80772084e+00
C     1.075291415951442e+01   5.058368163930112e+00  -7.082945999999986e-01  2.47316651e+00  -9.87058020e-01   1.01037838e+00
C     6.724920500982504e+00   6.329608627320153e+00  -1.899365999999993e-01  1.77825498e+00  -5.15130483e+00  -4.94540120e-01
C     8.072214500171892e+00   5.806078878178821e+00  -2.471606999999985e-01 -1.38737322e+00   1.49724155e+00  -2.90071280e-01
C     8.350273733132125e+00   4.432421125237593e+00  -4.578179999999996e-01  4.14853955e+00   3.95770022e+00  -4.22864270e-01
C     9.736969590285598e+00   4.059304137488917e+00  -6.539310000000000e-01  1.10366949e+00   4.68572140e-01   1.61662800e+00
C     1.016946024093820e+01   2.785648521980662e+00  -2.885021999999999e-01 -2.99365283e+00  -2.30415431e+00  -5.62382840e-01
C     4.313697771572012e+00   5.770378684228474e+00  -4.684029000000010e-01  4.25722750e-01  -1.97167723e+00   4.52903210e-01
C     5.733759416037392e+00   5.334800711897147e+00  -4.417976999999986e-01 -3.64965025e+00   1.06870387e+00   1.42071919e+00
C     5.969901843200812e+00   3.930227349299421e+00  -3.737600999999984e-01  9.99274220e-01   1.00876921e+00  -9.15912210e-01
C     7.350417205016754e+00   3.618031338370593e+00  -4.162028999999983e-01 -3.05241114e+00  -8.59033983e+00   7.79967500e-02
C     7.729469633985639e+00   2.018873053494446e+00  -4.145958000000007e-01 -3.92923698e+00   6.50962725e+00  -7.63116770e-01
C     9.025671316052003e+00   1.782414898352016e+00  -2.674059000000000e-01  7.09235642e+00  -2.83364869e+00   1.44102561e+00
C     3.324859838276450e+00   4.710214495737932e+00  -4.376297999999998e-01 -2.26302220e+00   1.32539314e+00  -1.77581487e+00
C     3.618293209014573e+00   3.325582802033933e+00  -3.680376000000010e-01  9.16497800e-02   1.35960660e+00   4.12840630e-01
C     4.934464005778255e+00   2.939417234915998e+00  -4.318953000000008e-01  2.56952981e+00  -1.00595470e-01  -6.72915890e-01
C     5.297982629871449e+00   1.571799979236715e+00  -6.404955000000001e-01 -1.69267356e+00  -1.40499580e-01   2.13192202e+00
C     6.609482859870372e+00   1.179901254470833e+00  -5.806791000000011e-01  4.03142104e+00  -1.77833656e+00   7.43919120e-01
C     1.152500303628933e+01   7.539421423011571e+00  -4.710122999999982e-01 -4.59017617e+00  -2.77593449e+00  -2.03037923e+00
C     2.642148221519305e+00   2.346682809661731e+00  -1.572789000000014e-01 -2.26315657e+00   1.72215006e+00  -5.04383610e-01
C     3.011917153784125e+00   1.036892891657438e+00   2.313240000000000e-02  1.48758180e-01  -3.88621928e+00  -1.10186739e+00
C     4.317545246558862e+00   5.839655096008888e-01  -3.037911000000015e-01 -7.72162200e-02  -1.59314007e+00   1.24936440e-01
C     6.660927575394635e-01   3.563676330273937e-01  -1.043517000000023e-01 -3.47290097e+00   1.55375724e+00  -1.29353609e+00
C     6.487116299054172e+00   7.627069939596393e+00   9.837000000000001e-04 -3.12494465e+00   5.26771857e+00   1.37206990e-01
