32
Lattice="9.86 0 0 4.93 8.53901048131456 0 0 0 30 " PBC="1 1 1" Properties=species:S:1:pos:R:3:force:R:3 Energy="-253.32371412"
C     9.666514409900000e+00   9.346868329590792e-01   3.405720000000000e+00 -4.27619520e+00   1.02614673e+00  -2.06984016e+00
C     1.081611803750000e+01   1.755543105862946e+00   3.460308000000000e+00  5.19190060e-01  -5.81459200e+00  -1.67192530e-01
C     2.183836430500000e+00   1.000784068260777e+00   3.367483200000000e+00  1.44118292e+00   8.18307530e-01  -5.44835430e-01
C     3.448138036400000e+00   1.693766524474024e+00   3.617626500000000e+00  1.60511250e-01  -1.82817508e+00   2.72529500e-02
C     4.716247820800000e+00   9.699576426972432e-01   3.590474100000000e+00 -1.06526749e+00   4.97521820e-01  -1.37673445e+00
C     5.933309131399999e+00   1.672894450377550e+00   3.692777700000000e+00 -5.46515000e-01   3.69210486e+00  -5.43631480e-01
C     7.148501429700000e+00   1.069570408742836e+00   3.606947100000000e+00  9.24921190e-01  -4.28525347e+00  -1.09063039e+00
C     8.390268695800000e+00   1.698836476556419e+00   3.526830300000000e+00  1.46065389e+00   1.46771954e+00  -2.42979190e-01
C     1.077514436380000e+01   3.029949347362537e+00   3.821486700000000e+00  1.54810854e+00   6.73047733e+00   5.61768960e-01
C     2.218036629300000e+00   3.740389468941725e+00   3.937884000000000e+00 -5.40206830e-01   2.11480111e+00  -7.41640360e-01
C     3.467272056600000e+00   3.100042668788666e+00   3.828379800000000e+00 -2.05432070e-01  -1.57979969e+00  -9.84744410e-01
C     4.699938986399999e+00   3.743019911120089e+00   3.538875000000000e+00 -1.31229200e+00   4.92280283e+00   1.53746600e-02
C     5.960887847200000e+00   3.170857878160773e+00   3.553676700000000e+00 -2.53583189e+00  -4.07595729e+00   1.15350461e+00
C     7.123107295500000e+00   3.874239482896983e+00   3.574314600000000e+00  2.17437101e+00   6.40447340e-01  -1.52204726e+00
C     8.379591548299999e+00   3.176613939735236e+00   3.485593500000000e+00  4.75345640e-01  -1.02860878e+00   2.17524467e+00
C     9.593991743499998e+00   3.889583230828495e+00   3.739702800000000e+00 -4.53090620e-01   8.24141500e-02  -4.93142210e-01
C     1.212668838360000e+01   5.204976210291457e+00   3.822402900000000e+00 -3.00917412e+00  -5.01687790e-01   2.44967210e-01
C     1.326079292930000e+01   5.950783547037128e+00   3.492467100000000e+00  8.61165950e-01  -4.09664540e-01  -6.26312220e-01
C     4.606373946100000e+00   5.237857121776480e+00   3.264627600000000e+00  1.66186832e+00  -1.35529087e+00   1.11843825e+00
C     5.847367399399999e+00   5.966752265145672e+00   3.074731200000000e+00  3.13958790e-01  -3.94426190e-01  -2.15869900e-01
C     7.095597353200000e+00   5.266973866661707e+00   3.342617400000000e+00  6.33411940e-01   2.52433654e+00  -7.34535230e-01
C     8.334697045599999e+00   6.075838636368301e+00   3.307625100000000e+00  9.16610230e-01  -2.15429159e+00   1.06279085e+00
C     9.599486129900001e+00   5.399654804692148e+00   3.733766700000000e+00 -1.22307823e+00  -3.51080374e+00  -1.15324204e+00
C     1.087635519320000e+01   5.960480020387693e+00   3.778280100000000e+00 -7.52227500e-02   1.45646433e+00  -3.84084810e-01
C     1.322095458530000e+01   7.372497539178772e+00   3.348309300000000e+00  1.29339438e+00   6.42854120e-01  -1.27936531e+00
C     1.443141408360000e+01   8.078947893501285e+00   2.941672200000000e+00  2.01981733e+00   8.79860970e-01   2.80091929e+00
C     5.837169004200000e+00   7.395782993807208e+00   2.803755300000000e+00  8.96981210e-01  -1.40738830e-01   1.59373440e+00
C     7.122814157700001e+00   8.163502456125817e+00   2.970267600000000e+00 -1.07759184e+00  -2.37058790e-01   3.80708190e-01
C     8.375320245599999e+00   7.470384741986566e+00   3.078855600000000e+00  5.13170200e-01  -4.28099580e-01   4.82267350e-01
C     9.687136944999999e+00   8.120720049648607e+00   3.253219200000000e+00 -3.12968408e+00   4.18623900e-02   1.95686603e+00
C     1.084725493150000e+01   7.402395859693234e+00   3.592951500000000e+00  4.66101990e-01  -9.51600610e-01  -1.07670688e+00
C     1.203672648310000e+01   8.123519222674055e+00   3.458752800000000e+00  1.16881728e+00   1.15792727e+00   1.67369683e+00
