32
Lattice="9.86 0 0 4.93 8.53901048131456 0 0 0 30 " PBC="1 1 1" Properties=species:S:1:pos:R:3:force:R:3 Energy="-256.96037169"
C     5.027142544100000e+00   7.524230119661455e+00  -8.721630000000147e-02 -2.67602530e+00   3.66881060e-01  -4.61823120e-01
C     6.219937112899999e+00   8.232019305437127e+00  -1.575623999999998e-01  8.62136730e-01   9.27033380e-01  -2.80315580e-01
C     7.461846757400000e+00   7.518816130846821e+00  -1.425108000000002e-01  1.36945270e-01   1.23866880e+00   7.04669200e-02
C     8.695634917100000e+00   8.233499969854359e+00  -1.988126999999977e-01 -8.88398390e-01   1.65589390e-01  -2.82136430e-01
C     9.905329131500000e+00   7.527777395395057e+00  -2.008665000000001e-01  6.42355110e-01  -8.91255900e-02   5.94890690e-01
C     1.115195323640000e+01   8.262318532493625e+00  -1.637978999999987e-01 -1.24390504e+00  -1.47206801e+00  -3.01884530e-01
C     1.234477097620000e+01   7.508331592219058e+00  -2.171646000000003e-01  1.96931615e+00   1.03106659e+00  -2.32499820e-01
C     1.362237559550000e+01   8.239151940891071e+00  -1.790906999999997e-01 -5.24376870e-01   1.51515250e-01  -4.11863600e-02
C     1.261903653900000e+00   1.136204235463097e+00  -3.284829000000009e-01  1.47778736e+00  -1.03805313e+00   2.57029840e-01
C     2.508109103200000e+00   1.836407108158022e+00  -4.122833999999997e-01 -4.09424300e-02  -3.56368950e-01   2.29196320e-01
C     3.732474307400000e+00   1.106719971566810e+00  -3.124673999999992e-01  3.02808280e-01   1.18966103e+00   5.44019620e-01
C     4.944574115300000e+00   1.861420346166982e+00  -1.873440000000031e-01  4.79692390e-01  -9.35463190e-01  -1.86901920e-01
C     6.181325205000000e+00   1.125955458914686e+00  -1.130622000000017e-01  2.18013000e-01   8.57235560e-01  -4.13656110e-01
C     7.411725074300000e+00   1.821449579670521e+00  -1.571280000000002e-01  1.18324075e+00   1.70555212e+00  -2.26474990e-01
C     8.663870877799999e+00   1.155229236202642e+00  -2.537924999999994e-01  3.81335270e-01  -1.73358818e+00   9.08521970e-01
C     9.932986530099999e+00   1.855449870039366e+00  -2.960951999999999e-01 -1.95752697e+00  -1.25729600e-02  -6.83624220e-01
C     2.529586056599999e+00   3.263240578642844e+00  -4.554362999999988e-01 -4.69005220e-01  -6.00374000e-03   1.93420810e-01
C     3.736827596000000e+00   3.984733680777450e+00  -3.133319999999991e-01  1.11851999e+00   4.52731020e-01  -5.58778350e-01
C     4.969942662799999e+00   3.281434306712161e+00  -2.027445000000014e-01  3.34998050e-01  -1.65908750e-01  -2.65323610e-01
C     6.229289027099999e+00   3.984983446833990e+00  -1.879412999999985e-01 -3.77086940e-01   4.08676280e-01   8.21698180e-01
C     7.475176540700000e+00   3.290406330413602e+00  -1.431909000000005e-01 -3.05224645e+00  -2.65946944e+00  -1.72781040e-01
C     8.659580298800000e+00   3.955760988999019e+00  -1.494438000000002e-01  2.85944210e+00   3.17240870e-01  -8.10386980e-01
C     9.914181143699999e+00   3.267026861279782e+00  -3.888530999999986e-01  4.16728710e-01   3.71623240e-01   9.97725860e-01
C     1.116438526670000e+01   3.982021093318268e+00  -4.640400000000007e-01 -1.44570672e+00   1.09856100e-01   5.58498060e-01
C     3.771767886400000e+00   5.420503908850430e+00  -3.411669000000010e-01 -2.17190103e+00  -1.14875202e+00   6.23804970e-01
C     4.960418346499999e+00   6.103350901184337e+00  -9.231510000000043e-02  1.86101553e+00   4.40680180e-01  -8.15650780e-01
C     6.219487694100000e+00   5.412968317491935e+00  -1.097090999999999e-01  5.27614700e-02  -3.50314180e-01   1.38307310e-01
C     7.475265773699999e+00   6.130988774844534e+00  -7.270619999999894e-02 -8.53674660e-01  -2.15508430e+00   9.06269500e-02
C     8.690720298700001e+00   5.349190448216816e+00  -7.624019999999732e-02 -6.26250000e-01   2.38017835e+00  -3.96102270e-01
C     9.893982785799999e+00   6.098435249021316e+00  -1.606923000000009e-01  6.91305150e-01   1.04816100e-02  -5.11564830e-01
C     1.113267171060000e+01   5.419111025460933e+00  -3.407213999999996e-01 -4.35472390e-01  -1.78926500e+00  -2.93567200e-01
C     1.234392883360000e+01   6.084939172177465e+00  -3.860397000000013e-01  1.77411711e+00   1.78736660e+00   9.06450640e-01
