32
Lattice="9.86 0 0 4.93 8.53901048131456 0 0 0 30 " PBC="1 1 1" Properties=species:S:1:pos:R:3:force:R:3 Energy="-256.92528004"
C     4.980082144500000e+00   7.499946027757384e+00  -1.926959999999980e-01 -1.34198719e+00   6.44386900e-02   4.85185000e-03
C     6.179159603900000e+00   8.214765039300820e+00  -1.966290000000015e-01  1.73720935e+00  -7.91140000e-03   1.21274820e-01
C     7.406285509500000e+00   7.479379650236094e+00  -4.370850000000104e-02  1.13705162e+00   1.44056720e+00  -7.00231860e-01
C     8.670609448299999e+00   8.206787212589566e+00  -1.546982999999997e-01 -4.49374620e-01  -1.44189800e-02   4.10211260e-01
C     9.912113452400000e+00   7.493171774573285e+00  -1.397693999999987e-01 -3.04370060e-01  -4.62793000e-02  -6.04094340e-01
C     1.115350712310000e+01   8.202471425912764e+00  -2.021675999999992e-01 -8.95389140e-01  -7.87561880e-01   3.36547850e-01
C     1.235632093090000e+01   7.504194697811812e+00  -2.220531000000001e-01  1.68160526e+00  -7.21301970e-01   1.87421400e-02
C     1.359636008410000e+01   8.211632247135917e+00  -2.265528000000003e-01  1.61963750e-01  -2.77266220e-01   1.71197670e-01
C     1.299676673000000e+00   1.101699716525408e+00  -3.861762000000013e-01 -4.82494030e-01  -9.70904690e-01   1.51507990e-01
C     2.514593433600000e+00   1.813425556912570e+00  -4.326191999999978e-01  1.24585837e+00  -2.22377580e-01   2.88954510e-01
C     3.764233564600000e+00   1.110746968909178e+00  -2.629628999999980e-01 -4.33194130e-01  -1.12788406e+00  -1.99777320e-01
C     5.021276485000000e+00   1.785883149389539e+00  -2.061557999999977e-01 -8.43410990e-01  -6.90591540e-01  -2.17702300e-01
C     6.266570081499999e+00   1.054159202628532e+00  -1.578333000000001e-01 -2.56535247e+00   1.01352851e+00   1.65064850e-01
C     7.439288950799999e+00   1.762952490646547e+00  -1.189232999999987e-01  2.12165253e+00   2.56992713e+00  -2.86408010e-01
C     8.674847917199999e+00   1.086332742485391e+00  -2.038440000000001e-01  6.69525200e-01  -4.53113750e-01  -6.82083140e-01
C     9.921924250999998e+00   1.777196755588655e+00  -4.056005999999996e-01 -1.33723635e+00   8.48156920e-01   1.04418865e+00
C     2.525200279300000e+00   3.241602982256839e+00  -5.200764000000007e-01 -6.24442510e-01  -1.31426721e+00   1.42582240e-01
C     3.733970217300000e+00   3.917969121806740e+00  -4.118984999999995e-01  2.07492593e+00   9.84277290e-01   1.16552506e+00
C     4.967241910199999e+00   3.182892759531285e+00  -2.140070999999999e-01  6.96648190e-01   1.43126560e+00   2.87921200e-02
C     6.205139372800000e+00   3.905951062286873e+00  -1.990709999999751e-02 -3.91006050e-01   1.23117639e+00  -6.02034480e-01
C     7.465144434400000e+00   3.242682057011196e+00  -9.167339999999768e-02 -1.98372891e+00  -1.84983492e+00   1.37190760e-01
C     8.647866175099999e+00   3.959651959904441e+00  -2.220449999999978e-01  1.85270151e+00  -8.57032890e-01   2.67039270e-01
C     9.873925721700001e+00   3.192963412321082e+00  -3.597281999999993e-01  1.51598394e+00   1.49183640e+00  -9.02707680e-01
C     1.115538786880000e+01   3.913730783954992e+00  -5.046441000000002e-01 -1.95642419e+00   1.09141881e+00   5.90318570e-01
C     3.787086628900000e+00   5.360747486560866e+00  -2.515032000000019e-01 -2.16100694e+00  -8.05381350e-01  -7.46356170e-01
C     4.965040320099999e+00   6.077566505138928e+00  -1.482321000000013e-01  1.88420810e+00  -1.10612000e-03   6.55121990e-01
C     6.191530255700000e+00   5.360129432982323e+00   1.945230000000000e-02  5.26896370e-01  -8.30309510e-01  -5.14469590e-01
C     7.440921273800000e+00   6.070237899394469e+00   3.544380000000000e-02 -3.61848000e-01  -2.61191010e-01  -5.76219510e-01
C     8.686912958300001e+00   5.377288232981464e+00  -1.450721999999978e-01 -9.50481790e-01  -4.46078230e-01   2.81514070e-01
C     9.908771898400000e+00   6.060378757894261e+00  -2.382066000000016e-01  9.65417660e-01   6.49635670e-01   4.17380000e-03
C     1.115540280670000e+01   5.354262791222145e+00  -4.075619999999986e-01  3.08818680e-01   4.00032000e-03   6.59272890e-01
C     1.241417955880000e+01   6.086997586043775e+00  -2.764322999999997e-01 -1.49871909e+00  -1.13541633e+00  -6.11987970e-01
