26
Lattice="8.88768389401873 1.33226762955019e-15 0 4.44384194700937 7.69696003302603 0 0 0 30 " PBC="1 1 1" Properties=species:S:1:pos:R:3:force:R:3 Energy="-208.93962562"
C     6.900075154756581e-01   8.444776654418722e-01   3.512611800000000e+00  8.68087700e-01  -3.42613402e+00   4.79992200e-02
C     3.069507656201279e+00   2.208513371679996e-01   3.521176500000000e+00 -7.20938490e-01  -1.05963580e+00  -5.01350200e-02
C     4.408674091233122e+00   5.713310266812441e-01   3.576426900000000e+00  1.47771372e+00   4.02163160e-01   2.87622440e-01
C     9.877133166668575e+00   7.274131456201565e+00   3.649910400000000e+00  1.10967206e+00   1.02291769e+00   1.76268110e-01
C     1.127053798139956e+01   7.695821649611562e+00   3.663755100000000e+00 -2.74474340e-01  -7.43033220e-01   8.36070100e-02
C     1.231627322141941e+01   6.727103888693446e+00   3.661606200000000e+00  4.01939090e-01  -7.63649250e-01  -7.54337750e-01
C     4.826615786175531e+00   7.093240734299718e+00   3.544087500000000e+00 -2.15902621e+00   2.32637827e+00   2.26652120e-01
C     5.825799471033868e+00   6.140188750069862e+00   3.509976300000000e+00 -2.21651460e-01  -1.88334509e+00   3.31786220e-01
C     7.163449267277375e+00   6.535424953674352e+00   3.526612200000000e+00  1.48262845e+00  -1.13950614e+00   4.57902290e-01
C     8.175194848928829e+00   5.497046394791923e+00   3.661571400000000e+00  4.61407170e-01   4.87333200e-01  -9.08022380e-01
C     9.571022979542157e+00   5.907791203160859e+00   3.698580000000000e+00 -9.39319280e-01  -1.27877014e+00  -2.29684120e-01
C     1.060726968378102e+01   4.905827885815564e+00   3.664456800000000e+00 -1.72733620e-01   1.28718599e+00  -1.48904340e-01
C     3.093012294967669e+00   5.332216534536674e+00   3.597252300000000e+00 -5.73146330e-01   1.01915030e-01   6.30032510e-01
C     4.120684295119883e+00   4.353592939999150e+00   3.567471300000000e+00 -1.22470620e-01  -2.67043960e-01  -4.98352090e-01
C     5.484749309949923e+00   4.720820136963270e+00   3.565452600000000e+00  2.45975450e-01   8.75127120e-01  -5.78953660e-01
C     6.482057160210705e+00   3.712764444845429e+00   3.510728100000000e+00 -3.73218310e-01  -2.61372210e-01   7.53090690e-01
C     7.847136348648581e+00   4.078680541638039e+00   3.563387700000000e+00 -2.45317820e-01   2.58784017e+00   6.05159550e-01
C     8.879244680687259e+00   3.152934523719412e+00   3.618512100000000e+00  5.51375300e-02  -1.30157530e+00  -5.95829280e-01
C     1.023523403487888e+01   3.540124017430138e+00   3.617113800000000e+00  5.64725790e-01   6.99643050e-01  -1.63355760e-01
C     2.382232083530225e+00   2.596898819040184e+00   3.506693400000000e+00  1.00764806e+00  -1.04660225e+00  -1.90262600e-02
C     3.765506182878959e+00   2.982565700117775e+00   3.462855300000000e+00 -1.67619880e-01  -9.21691170e-01   1.19250506e+00
C     4.779150351565109e+00   1.947443263206438e+00   3.589392300000000e+00 -1.36311592e+00   5.44378140e-01  -7.32864510e-01
C     6.118119391153999e+00   2.322929760100350e+00   3.606971100000000e+00  1.57351403e+00   9.05156360e-01  -2.88397440e-01
C     7.175828030038031e+00   1.361010262159132e+00   3.640000500000000e+00 -2.62213190e-01   3.03510600e-01  -4.84424470e-01
C     8.551229685634430e+00   1.757318036538998e+00   3.537248700000000e+00 -1.14285188e+00   1.43427130e+00   7.58981300e-01
C     2.061519209561005e+00   1.200639789636465e+00   3.497128800000000e+00 -5.10351680e-01   1.11453848e+00  -9.93194200e-02
