32
Lattice="9.948 0 0 4.974 8.6152207168476 0 0 0 30 " PBC="1 1 1" Properties=species:S:1:pos:R:3:force:R:3 Energy="-257.76266154"
C     3.281732223669977e-03  -7.489903735355271e-03   3.008749423962116e+00 -2.01933290e-01   4.96802690e-01   9.86420400e-02
C     1.240606614689348e+00   7.317934918250086e-01   3.013618656139216e+00  3.10799780e-01  -7.63753170e-01  -1.72407970e-01
C     2.496817402813392e+00  -7.587961663194250e-03   2.993057652476767e+00 -1.00451474e+00   9.58133930e-01   2.42702330e-01
C     3.716282983449779e+00   7.242299224009235e-01   2.997834570012521e+00  7.10434040e-01  -6.00188710e-01  -7.48968600e-02
C     4.966432167520458e+00  -4.102973177120537e-04   2.992766855252683e+00  3.68636470e-01   3.24656660e-01   8.70685000e-02
C     6.212647839482254e+00   7.314691108956959e-01   3.006199857835064e+00  7.52725400e-02  -5.24921760e-01  -2.00688210e-01
C     7.471763780859735e+00   7.509251499273381e-03   2.991624735850678e+00 -9.56490250e-01  -2.93696290e-01   1.62205590e-01
C     8.696746596330756e+00   7.054761051567642e-01   3.008533671582498e+00  7.51191080e-01   9.97734160e-01  -1.63703320e-01
C     1.246030531167916e+00   2.163414710647649e+00   3.007233478750308e+00 -2.92775280e-01  -2.72041970e-01   4.25896000e-03
C     2.490361965919110e+00   2.871246264984943e+00   3.002245937629358e+00 -2.63648630e-01   3.94677370e-01   8.57062000e-03
C     3.718397739197014e+00   2.149117834893398e+00   2.998990005985987e+00  6.06836190e-01   3.07318140e-01   1.63797500e-02
C     4.973132071314819e+00   2.863762623557887e+00   2.998969689616863e+00 -3.37631230e-01   7.78518190e-01   7.35442400e-02
C     6.215288183889146e+00   2.163137453978493e+00   2.999288846519501e+00  1.50101900e-02  -4.30324150e-01   2.44453700e-02
C     7.467529709208979e+00   2.864264186982066e+00   2.995416878397611e+00 -6.48785240e-01   9.64678380e-01  -9.02224000e-03
C     8.691075018402703e+00   2.167729222918564e+00   2.993090239347490e+00  9.93727400e-01  -1.23342177e+00   1.56961150e-01
C     9.946125539365491e+00   2.870722935091135e+00   3.003958163666024e+00 -2.10845710e-01   5.95069310e-01  -2.35663100e-02
C     2.490725376218698e+00   4.308270266768175e+00   3.002743424646938e+00 -1.57858290e-01   1.39416180e-01   2.53000000e-05
C     3.735692522714894e+00   5.024726924269432e+00   3.010417246975509e+00 -3.57666210e-01   3.83589520e-01  -5.00100000e-04
C     4.968302846958052e+00   4.318759219286139e+00   3.011159138132005e+00  5.38390750e-01  -6.90881360e-01  -1.25017510e-01
C     6.224315310227134e+00   5.036362969633164e+00   2.997248278512303e+00  1.94009800e-02  -7.32777700e-01   4.80442200e-02
C     7.470191981223353e+00   4.307775485156620e+00   2.995393923391386e+00 -3.94022490e-01  -2.64061730e-01  -4.53810500e-02
C     8.713711946386381e+00   5.013560805729686e+00   2.990717426988004e+00 -8.38905960e-01   8.13454540e-01   1.49943740e-01
C     9.935891389851808e+00   4.320771458972913e+00   3.005224409223526e+00  1.19696860e+00  -9.25704870e-01  -1.42619600e-01
C     1.119070979396117e+01   5.037991776144178e+00   2.997099845209541e+00  2.09038900e-02  -7.49767650e-01   1.63325460e-01
C     3.735302437142471e+00   6.472629460998483e+00   3.011904206712259e+00 -2.82917590e-01  -5.65625660e-01  -7.39799800e-02
C     4.968359523186432e+00   7.174754432440502e+00   3.014480533350863e+00  8.18496640e-01   1.12846630e-01  -1.37956220e-01
C     6.226231125722830e+00   6.454147048046715e+00   2.995065135313575e+00 -4.56818860e-01   7.81292850e-01   2.24072970e-01
C     7.458701517850215e+00   7.192342824285179e+00   3.012005854154086e+00  4.74776980e-01  -1.14364697e+00  -2.48880260e-01
C     8.703203709089113e+00   6.450659632148645e+00   3.002908706122794e+00  3.08747950e-01   6.65704910e-01  -8.72850900e-02
C     9.961405260315260e+00   7.176089918343096e+00   2.991947245713931e+00 -9.72939750e-01   1.02081000e-02   1.44260030e-01
C     1.119190679864798e+01   6.456654168331041e+00   3.008549017067777e+00  6.35523520e-01   6.48926530e-01  -2.38682250e-01
C     1.244578037552414e+01   7.186672181752329e+00   2.994617130259543e+00 -4.67363480e-01  -1.82214320e-01   1.40136710e-01
