32
Lattice="9.86 0 0 4.93 8.53901048131456 0 0 0 30 " PBC="1 1 1" Properties=species:S:1:pos:R:3:force:R:3 Energy="-256.79786732"
C     9.825018396200001e+00   1.643120799416096e-01   3.854964900000000e+00  1.65443712e+00   2.04877335e+00   2.08929730e-01
C     1.225194233000000e+00   9.473186765522480e-01   3.883005900000000e+00 -6.63231970e-01  -2.13412649e+00  -8.15168190e-01
C     2.469561975500000e+00   2.326037555465624e-01   3.729204900000000e+00 -1.32080111e+00  -1.18228357e+00   5.20179880e-01
C     3.681762552600000e+00   9.274524978903184e-01   3.790195800000000e+00  3.29326880e-01   8.96108230e-01  -2.47394960e-01
C     4.931032736399999e+00   2.274607949245632e-01   3.790713600000000e+00 -1.19171984e+00   2.19037330e-01   5.63358370e-01
C     6.155890201099999e+00   9.442971476938999e-01   3.837897900000000e+00  2.14559690e-01  -2.37230279e+00  -6.91460990e-01
C     7.365729850500000e+00   2.198037788370424e-01   3.750935699999999e+00  1.06809663e+00  -2.30168700e-02   1.38013019e+00
C     8.620022471800000e+00   9.330539179849888e-01   3.855773400000000e+00 -7.01635310e-01  -2.01534426e+00  -7.28872630e-01
C     1.108316253070000e+01   2.350946617546728e+00   3.901170000000000e+00 -5.69215240e-01   6.13828830e-01   1.98088370e-01
C     2.448870173900000e+00   3.059801130269884e+00   3.911500199999999e+00 -4.53731390e-01   4.83115970e-01  -1.25760290e-01
C     3.642372296300000e+00   2.378080518808394e+00   3.843055800000000e+00  2.54127810e+00  -1.88164061e+00   2.98047200e-02
C     4.919897394700000e+00   3.039111107876844e+00   3.823874700000000e+00 -1.56275670e-01   7.95216650e-01   3.65632620e-01
C     6.186906310099999e+00   2.312431923117316e+00   3.821690400000000e+00 -2.85739669e+00   2.35052950e+00  -4.20936130e-01
C     7.351275928600000e+00   3.047394887333597e+00   3.736118100000000e+00  2.56640123e+00   5.92632920e-01   9.86003010e-01
C     8.604298927000000e+00   2.318910214198177e+00   3.826431300000000e+00  8.76947250e-01   2.44907242e+00  -1.58122770e-01
C     9.859325970399999e+00   3.076527258608003e+00   3.877830600000000e+00 -1.75938112e+00  -9.66657380e-01   2.41904290e-01
C     1.232607168340000e+01   4.477013270696367e+00   3.932237700000000e+00 -2.27984214e+00  -4.70416220e-01   2.69197950e-01
C     3.626351620400000e+00   5.190546648821935e+00   3.885977100000000e+00  3.75552191e+00   7.84868400e-01  -6.01259930e-01
C     4.917961876700000e+00   4.474379925254439e+00   3.839644800000000e+00 -6.14513100e-01  -1.82024390e-01  -4.22974730e-01
C     6.160988215500000e+00   5.178501264468531e+00   3.722739000000000e+00 -8.85339320e-01   1.12709815e+00   7.74916400e-01
C     7.381046571700001e+00   4.494480926704569e+00   3.773994900000000e+00  3.39064190e-01  -1.19579053e+00  -7.65750330e-01
C     8.636160185900000e+00   5.199533871962029e+00   3.792340500000000e+00 -2.45300282e+00   5.27871420e-01  -5.73337500e-02
C     9.802966802000000e+00   4.500588795510808e+00   3.914799900000000e+00  3.15216230e+00  -1.29593083e+00  -3.68659300e-02
C     1.108170773700000e+01   5.172431138088615e+00   3.978008100000000e+00 -7.66023760e-01   1.19441028e+00  -6.00169890e-01
C     1.354004494060000e+01   6.632033573631066e+00   3.789125400000000e+00 -1.11329090e-01  -1.85466920e+00   9.92569540e-01
C     4.926529575799999e+00   7.283242763625629e+00   3.817727700000000e+00 -7.57617360e-01   1.87591970e+00  -3.98199870e-01
C     6.153766652900000e+00   6.634568549672264e+00   3.741842400000000e+00 -2.69600100e-01  -2.50633140e+00  -3.81536680e-01
C     7.358194937099999e+00   7.303619489724158e+00   3.652370400000000e+00  1.20620091e+00   2.30029727e+00   6.58856410e-01
C     8.597372523499999e+00   6.618748666516386e+00   3.722365800000000e+00  1.99223590e-01   1.61865300e-01   5.06245480e-01
C     9.797774279500000e+00   7.357621729021564e+00   3.869991000000000e+00  2.48282992e+00  -1.34743877e+00  -8.82608980e-01
C     1.108440474280000e+01   6.598078369237555e+00   3.903902400000000e+00 -7.14920440e-01   9.70410880e-01   2.87126630e-01
C     1.233531030620000e+01   7.337478801029977e+00   3.854103600000000e+00 -1.86047328e+00   3.69167000e-02  -6.48527560e-01
