32
Lattice="9.86 0 0 4.93 8.53901048131456 0 0 0 30 " PBC="1 1 1" Properties=species:S:1:pos:R:3:force:R:3 Energy="-251.71400436"
C     4.918980809100000e+00   8.190591442192359e+00  -4.355340000000005e-01  1.08341616e+00   5.83777210e-01  -5.60960500e-01
C     1.214591183400000e+00   3.875245463721632e-01  -3.744513000000005e-01  1.64963097e+00   2.17229347e+00  -1.02220261e+00
C     7.387979877199999e+00   8.267390704718744e+00  -3.637547999999988e-01  1.48947798e+00  -9.94404760e-01  -1.16508194e+00
C     3.708569033200000e+00   4.386964452558688e-01  -6.797387999999991e-01 -5.23219230e-01  -6.28486510e-01   1.98057422e+00
C     9.895150752099999e+00   8.218547137822622e+00  -5.745341999999987e-01  1.05527269e+00   3.46340230e+00  -1.27712121e+00
C     6.233860862599999e+00   4.088537990897360e-01  -5.690948999999996e-01 -1.81617040e-01  -5.30687890e-01   3.85945000e-03
C     1.237078150830000e+01   8.289099687232364e+00  -6.153297000000002e-01 -1.39350000e-03  -4.01424344e+00  -5.68734910e-01
C     8.654428498100000e+00   4.487064710712584e-01  -4.960823999999988e-01  7.38438830e-01  -4.22216016e+00   3.80224180e-01
C     1.339442546000000e+00   1.870724366595885e+00  -6.779571000000004e-01 -2.29831195e+00  -4.53293300e-02  -1.04282360e-01
C     2.534041593400000e+00   2.654048955956799e+00  -9.341078999999972e-01  1.95298650e-01  -2.85690239e+00  -2.41492200e-02
C     3.779559209100000e+00   1.910143769185652e+00  -8.298123000000004e-01 -1.92084719e+00  -4.18049690e+00   4.16924960e-01
C     5.020883120300000e+00   2.427573819011942e+00  -7.549755000000005e-01  3.07085497e+00   4.13101656e+00  -7.81498530e-01
C     6.402140447300000e+00   1.776578616620007e+00  -5.547108000000023e-01 -6.29260419e+00   2.46590512e+00   6.55755100e-01
C     7.511855888600000e+00   2.581361483146846e+00  -3.011370000000007e-01  1.82924900e-02  -1.77085602e+00  -1.50874255e+00
C     8.728308146999998e+00   1.774898053967438e+00  -3.419723999999995e-01  5.47990810e-01   6.58638072e+00  -1.40942415e+00
C     9.925618793000000e+00   2.576643509076436e+00  -7.308921000000019e-01  5.27549240e-01  -1.26881197e+00   2.08068642e+00
C     2.515440259700000e+00   3.994870254728153e+00  -1.299350399999998e+00  6.47864640e-01   1.09118292e+00   3.16585310e-01
C     3.885425634700000e+00   4.726717590190596e+00  -1.251481199999997e+00 -5.49057724e+00  -3.52180906e+00   7.43496100e-02
C     4.958389503599999e+00   3.889134847388191e+00  -9.269898000000012e-01  2.77475776e+00   1.30437867e+00   1.80195775e+00
C     6.122541018900000e+00   4.649691275375547e+00  -4.757619000000020e-01  1.39877314e+00  -2.56173300e-02  -1.39212684e+00
C     7.370182626499999e+00   3.993485227228297e+00  -4.393527000000006e-01  3.24212415e+00  -4.72554360e-01   2.01881560e-01
C     8.659327340499999e+00   4.700449544591601e+00  -6.749991000000009e-01 -2.05103783e+00   1.98040366e+00   1.26725863e+00
C     9.876128051300000e+00   4.019440403483305e+00  -8.303435999999991e-01  9.32187330e-01  -1.49793628e+00  -1.70593807e+00
C     1.109612650800000e+01   4.689953478299689e+00  -1.295384100000000e+00  7.17102620e-01  -1.76859326e+00   1.23842287e+00
C     3.713219650100000e+00   6.077059800257046e+00  -1.043881200000001e+00  3.57769880e+00   2.96703519e+00   1.86870909e+00
C     4.990589305599999e+00   6.765726811353910e+00  -6.169733999999991e-01 -1.62773732e+00   1.12382324e+00  -5.18566000e-03
C     6.242761188799999e+00   6.087141553760467e+00  -4.180203000000020e-01 -4.02453221e+00  -1.63957011e+00  -7.25872290e-01
C     7.427657848299999e+00   6.776301778102657e+00  -3.405629999999995e-01  7.94083050e-01   3.89338772e+00  -1.24182900e-01
C     8.634640809199999e+00   6.184374412195178e+00  -5.924166000000000e-01  4.24354455e+00  -3.00805795e+00  -9.25018450e-01
C     1.001764375060000e+01   6.876271645566523e+00  -7.760010000000008e-01 -4.52425573e+00  -3.99463403e+00  -5.75959830e-01
C     1.116502118740000e+01   6.061893919913832e+00  -1.238208000000000e+00 -1.31562633e+00   4.86367066e+00   3.02902064e+00
C     1.234842785300000e+01   6.820312948187939e+00  -9.222693000000000e-01  1.54740094e+00  -1.85505680e-01  -1.43972779e+00
