32
Lattice="9.86 0 0 4.93 8.53901048131456 0 0 0 30 " PBC="1 1 1" Properties=species:S:1:pos:R:3:force:R:3 Energy="-256.14316504"
C     9.822484770599999e+00   2.992052194171040e-02   3.599483100000000e+00  1.50371226e+00   1.07098961e+00   8.28881480e-01
C     1.218741109500000e+00   7.768695243885576e-01   3.741021600000000e+00 -1.96564800e-01  -1.73025808e+00  -5.60201120e-01
C     2.466823311200000e+00   2.989080618524000e-02   3.545223900000000e+00 -2.17113880e-01   1.60509840e-01   2.86393260e-01
C     3.713067411700000e+00   7.288196585165495e-01   3.559251300000000e+00 -1.61951300e-02   4.99530030e-01  -3.73974230e-01
C     4.996018714600000e+00   7.805629025914720e-02   3.376044300000000e+00 -3.58399260e+00  -9.39486090e-01   1.20364960e+00
C     6.167766669700000e+00   8.272766694936744e-01   3.517622100000000e+00  2.36039580e-01  -3.41438625e+00  -3.07144000e-01
C     7.354304969899999e+00   1.642384736712720e-02   3.562749900000000e+00  1.25413928e+00   2.06174994e+00   6.32433200e-01
C     8.589855949699999e+00   7.432917442582632e-01   3.696886500000000e+00  4.85000930e-01  -1.59871168e+00  -3.19458980e-01
C     1.106441822700000e+01   2.190868093610997e+00   3.943643100000000e+00  1.62650682e+00  -8.12740650e-01  -7.39274600e-01
C     2.469953121700000e+00   2.866929988217495e+00   3.876092400000000e+00 -1.20732178e+00   6.28065180e-01  -8.27604000e-02
C     3.680018565100000e+00   2.154167170397643e+00   3.700749000000000e+00 -3.27057300e-02   4.58348720e-01  -3.20371150e-01
C     4.862712845700000e+00   2.911103655672212e+00   3.534006300000000e+00  2.66673685e+00   4.27422960e-01   6.23782050e-01
C     6.140110158500000e+00   2.199712032155237e+00   3.558706800000000e+00 -4.31476640e-01   1.26836642e+00  -7.51940220e-01
C     7.407333430300000e+00   2.847291801135382e+00   3.537577200000000e+00 -4.41161010e-01  -4.06187500e-01   1.41826450e+00
C     8.613667948300000e+00   2.129992719388134e+00   3.795662700000000e+00  6.51533150e-01   1.97012931e+00  -9.58512430e-01
C     9.867243648999999e+00   2.906232406363686e+00   3.877591800000000e+00 -2.16942325e+00  -1.27442105e+00   1.44701850e-01
C     1.228855576380000e+01   4.305363789829502e+00   3.805071000000000e+00  7.35467940e-01  -6.41566710e-01  -7.17857400e-02
C     3.637265013500000e+00   5.008530894622455e+00   3.625995600000000e+00  2.68366252e+00   1.29260191e+00  -2.06460410e-01
C     4.948773292099999e+00   4.370946891310199e+00   3.518397300000000e+00 -1.85973115e+00  -2.60905813e+00  -4.57434570e-01
C     6.214742224000000e+00   4.991842850271077e+00   3.316693500000000e+00 -1.68251848e+00   1.35837308e+00   1.70158702e+00
C     7.426045195999999e+00   4.231106163772488e+00   3.488200500000000e+00 -1.28834443e+00   1.92485575e+00  -1.21170502e+00
C     8.615137236199999e+00   4.957499120900726e+00   3.484073100000000e+00  6.35714300e-01   1.72825067e+00   7.54237030e-01
C     9.825882132200000e+00   4.311593681095500e+00   3.769482300000000e+00  1.04780763e+00  -2.47372750e-01  -5.04655550e-01
C     1.106710552070000e+01   5.024638713211718e+00   3.751470600000000e+00 -6.44736450e-01  -9.83814700e-02  -2.01857730e-01
C     1.356469962410000e+01   6.434816843755300e+00   3.564378300000000e+00 -7.09319430e-01   2.05475510e-01   2.05556040e-01
C     4.947044439699999e+00   7.158926298700977e+00   3.477099300000000e+00 -1.36871814e+00  -3.11017920e-01   2.81750470e-01
C     6.164570550700000e+00   6.472915176033706e+00   3.403398900000000e+00  4.13700880e-01  -2.86897915e+00  -7.30100370e-01
C     7.390279475700000e+00   7.116228684597833e+00   3.385832400000000e+00 -2.42079880e-01   2.39405077e+00   4.38457620e-01
C     8.588782195699999e+00   6.401292688610820e+00   3.401347200000000e+00  1.51954288e+00   5.33741520e-01  -1.27717420e-01
C     9.817294565199999e+00   7.179487979766503e+00   3.422434500000000e+00  1.72729189e+00  -1.42044468e+00  -3.65950600e-02
C     1.105441905310000e+01   6.423370470987069e+00   3.552733800000000e+00  7.88318340e-01   1.32525890e+00   5.36849580e-01
C     1.233660403680000e+01   7.156857552631987e+00   3.627621000000000e+00 -1.88377247e+00  -9.34708010e-01  -1.09459469e+00
