32
Lattice="10.016 0 0 5.008 8.67411044430494 0 0 0 30 " PBC="1 1 1" Properties=species:S:1:pos:R:3:force:R:3 Energy="-257.4615164"
C     9.460346327689309e-03  -2.713000614814739e-03   3.001786098518498e+00 -2.18917550e-01  -1.75418660e-01   3.62478700e-02
C     1.260361102848842e+00   7.258839565521085e-01   3.001360389642359e+00 -1.60740240e-01  -1.78832020e-01  -1.28951900e-02
C     2.498525625814434e+00  -6.410765133629887e-03   3.000640236775555e+00  4.17145040e-01   2.41278750e-01   1.48112400e-02
C     3.753533864791491e+00   7.299396662767117e-01   3.003581393549278e+00 -3.65991300e-02  -1.97931350e-01  -5.57544600e-02
C     5.012219756234440e+00   1.302073428296069e-02   3.010076968633186e+00 -1.52826200e-01  -5.43371930e-01  -9.33939900e-02
C     6.269879972204358e+00   7.112979857417600e-01   2.994222888841273e+00 -3.96615880e-01   8.87287880e-01   8.99211500e-02
C     7.514757203250369e+00   1.717781641144464e-03   3.004633197109619e+00  5.02167170e-01  -5.41746240e-01  -1.21243860e-01
C     8.779362144768982e+00   7.108912542536098e-01   2.994366189643936e+00 -3.78374710e-01   7.76120890e-01   1.14741300e-01
C     1.266783598266327e+00   2.167208907493424e+00   2.998409797579996e+00 -6.20154920e-01   2.06576880e-01   2.33662300e-02
C     2.514329074160141e+00   2.881750224904877e+00   2.989875475965373e+00 -5.23303170e-01   8.35007960e-01   7.62425000e-02
C     3.747184718102585e+00   2.178179775405352e+00   2.991187469309509e+00  6.95010310e-01  -5.75517980e-01   6.70912500e-02
C     5.003745011657407e+00   2.901386349170317e+00   2.996622819080340e+00 -4.41003200e-02  -6.37304590e-01  -7.43722900e-02
C     6.249906148244030e+00   2.168165766902902e+00   2.985567438891299e+00  5.81629400e-01   1.91499100e-02   1.46312900e-01
C     7.513189171184052e+00   2.889150281331160e+00   2.998757267250944e+00  3.56629300e-02   2.77737240e-01  -1.24677170e-01
C     8.773990508060225e+00   2.176705502970345e+00   3.002002003301689e+00 -2.48163650e-01  -5.39128500e-01  -1.16950800e-02
C     1.001808722911967e+01   2.904210308174145e+00   3.008456823292511e+00  4.43728830e-01  -3.40611370e-01  -1.51169670e-01
C     2.515958195652493e+00   4.338067014974364e+00   2.998319850166073e+00 -4.47018300e-01  -1.67919680e-01  -1.07584190e-01
C     3.768315346770224e+00   5.050471963698122e+00   2.998406698693985e+00 -7.12034530e-01   2.23685810e-01  -7.67553000e-03
C     4.996436280906078e+00   4.332371106327044e+00   3.002688132396651e+00  9.76577830e-01   1.61819480e-01  -5.47086000e-02
C     6.254103628370325e+00   5.058595165425847e+00   2.999403378850286e+00  4.57270390e-01  -1.08068890e-01   3.84630900e-02
C     7.527310586755166e+00   4.348708955092933e+00   2.990209251597309e+00 -9.51385360e-01  -6.43956050e-01   1.56818420e-01
C     8.763858622830091e+00   5.068353542612473e+00   3.003513285880064e+00  3.02323940e-01  -5.81120900e-02  -1.44217500e-01
C     1.002222847115462e+01   4.346779238865677e+00   2.993818281550770e+00 -1.25842070e-01  -7.59739000e-02   1.16719680e-01
C     1.127043202545699e+01   5.064546512655025e+00   2.991219633335748e+00  3.43043980e-01  -1.33595490e-01   1.20417370e-01
C     3.761417363064400e+00   6.490689591514055e+00   2.990914655311118e+00 -2.04821350e-01   5.03373540e-01   2.08935310e-01
C     4.999351735024799e+00   7.223152783085725e+00   3.013644835512781e+00  6.71157740e-01  -2.85503000e-03  -1.61437390e-01
C     6.266227641257404e+00   6.499938215998004e+00   3.012966079863477e+00 -9.14993950e-01  -7.17255400e-02  -1.11111030e-01
C     7.499994583243762e+00   7.218628866189399e+00   2.999211719035112e+00  4.79984190e-01   4.17149110e-01   8.45225600e-02
C     8.750314145476635e+00   6.505515710180397e+00   2.999706737277406e+00  7.78230750e-01   3.90913170e-01   6.26474100e-02
C     1.002158277362449e+01   7.238263921519856e+00   3.008950384916852e+00 -5.75742050e-01  -1.90789820e-01  -1.11754500e-02
C     1.127046696544758e+01   6.509872926646282e+00   3.007813926213634e+00 -8.44586200e-02  -3.03881100e-02  -1.09882390e-01
C     1.252332924782659e+01   7.219791925396962e+00   3.001806937092291e+00  1.12159510e-01   2.73146620e-01  -4.26448000e-03
