32
Lattice="9.86 0 0 4.93 8.53901048131456 0 0 0 30 " PBC="1 1 1" Properties=species:S:1:pos:R:3:force:R:3 Energy="-252.82926022"
C     9.851148875200000e+00   3.673157826097760e-02   3.937502100000000e+00 -9.75266570e-01   7.31891280e-01  -1.54303819e+00
C     1.200763568700000e+00   7.794957824517864e-01   3.890716200000000e+00  1.85062923e+00   6.14175760e-01  -4.71989230e-01
C     2.533892362300000e+00   1.002098136583544e-01   3.635099400000000e+00 -9.72914371e+00  -4.04478640e+00   3.18188990e-01
C     3.628281961900000e+00   7.636477205613256e-01   3.651860400000000e+00  4.41677967e+00   3.98804842e+00   7.91865950e-01
C     4.831061309000000e+00   1.185048997820688e-01   3.710685600000000e+00  5.77989174e+00  -3.93462300e+00  -7.65525270e-01
C     6.200310043399999e+00   7.180281424620305e-01   3.672188100000000e+00 -5.79127691e+00   3.50696373e+00   4.06182900e-02
C     7.381376487300000e+00   9.801118923996401e-02   3.710571900000000e+00  1.31849897e+00  -4.68049076e+00  -9.20711360e-01
C     8.586917275299999e+00   7.473998622001913e-01   3.725731800000000e+00  2.87741677e+00   2.26320098e+00   2.06419480e+00
C     1.106021727540000e+01   2.226762165724096e+00   3.967711200000000e+00  1.36970091e+00  -1.70516155e+00  -2.45074560e-01
C     2.538837891800000e+00   2.866224580561742e+00   3.869997600000000e+00 -8.14680337e+00   5.38467585e+00   1.05166313e+00
C     3.621338648500000e+00   2.183786777610038e+00   3.823305300000000e+00  6.37721828e+00  -9.88671270e-01  -3.73955500e-01
C     4.918446594300000e+00   2.920334667561511e+00   3.860927400000000e+00  3.36217380e-01  -2.31625748e+00  -1.62767642e+00
C     6.140192095100000e+00   2.153074347836412e+00   3.623902800000000e+00  8.32184710e-01   9.93914990e-01   1.73433218e+00
C     7.380455513999999e+00   2.903764632334966e+00   3.703977000000000e+00 -1.63110657e+00   8.96809400e-01  -6.64588330e-01
C     8.618244319399999e+00   2.197600078693219e+00   3.844292700000000e+00 -6.99596880e-01  -2.49366920e-01  -5.27830950e-01
C     9.824000696299999e+00   2.915816847896753e+00   4.013038200000000e+00  1.17319208e+00   1.44995203e+00  -1.10853800e+00
C     1.232414878620000e+01   4.398490067344173e+00   3.911847300000000e+00 -7.74830290e-01  -3.53641041e+00  -1.33115250e-01
C     3.627006620200000e+00   5.067063505930026e+00   3.745470900000000e+00  3.90377625e+00  -1.88435074e+00   8.87330890e-01
C     4.979264109599999e+00   4.305970571914211e+00   3.788288700000000e+00 -5.04429576e+00   1.51093884e+00  -3.07870000e-01
C     6.096769296000000e+00   5.089427345157356e+00   3.607880700000000e+00  1.17715524e+00  -5.44137850e-01  -5.59794900e-01
C     7.266530904800000e+00   4.362796832757563e+00   3.591605100000000e+00  5.96190783e+00  -9.88934280e-01   1.10711324e+00
C     8.648814559199998e+00   5.104997889207216e+00   3.705254100000000e+00 -2.81747752e+00  -2.46357988e+00  -5.73025580e-01
C     9.890085078500000e+00   4.375691848653726e+00   3.878103900000000e+00 -3.80600708e+00  -9.79517310e-01   7.54060280e-01
C     1.106360556580000e+01   5.103947420137966e+00   3.988026300000000e+00  2.05216959e+00  -6.05933842e+00  -3.59150340e-01
C     1.354260444870000e+01   6.447117971472578e+00   3.737106600000000e+00  1.08696380e+00   1.86352427e+00  -1.73868800e-01
C     4.924049539299999e+00   7.170069878157586e+00   3.801106800000000e+00 -5.89384320e-01   3.21741460e-01  -1.07576016e+00
C     6.116371912700000e+00   6.511435335429825e+00   3.494712600000000e+00 -8.93848930e-01  -9.69731540e-01   1.57338667e+00
C     7.321880212000000e+00   7.174013961708193e+00   3.487523400000000e+00  2.08085036e+00   2.70335002e+00   4.15483370e-01
C     8.537811122899999e+00   6.498998608226124e+00   3.598779000000000e+00  3.85481265e+00  -2.68101580e-01   2.16340550e-01
C     9.847855339399999e+00   7.205738093443490e+00   3.699743700000000e+00 -1.48049338e+00  -3.25808050e-01   6.68848340e-01
C     1.111954962820000e+01   6.387987117090779e+00   3.891282000000000e+00 -1.12976603e+00   9.67160383e+00  -2.30053267e+00
C     1.237104624930000e+01   7.166658885031245e+00   3.654498000000000e+00 -2.94006816e+00   3.84765800e-02   2.10861886e+00
