26
Lattice="8.88768389401873 1.33226762955019e-15 0 4.44384194700937 7.69696003302603 0 0 0 30 " PBC="1 1 1" Properties=species:S:1:pos:R:3:force:R:3 Energy="-209.14050772"
C     7.495298453906083e-01   8.404121311540261e-01   3.422881500000000e+00 -5.44598930e-01   1.12886070e+00   4.11367150e-01
C     3.118475506016048e+00   2.576552751866482e-01   3.322016700000000e+00  3.53267050e-01  -1.75200100e-01   3.87121030e-01
C     4.496709622016687e+00   6.338194124416016e-01   3.353092800000000e+00 -5.38642240e-01   2.65381370e-01   2.13883110e-01
C     9.955439438782372e+00   7.348593848741393e+00   3.389815800000000e+00  3.55712470e-01  -8.56465910e-01   7.79089240e-01
C     6.884723452895174e+00   1.166535868226740e-02   3.530381700000000e+00 -2.47553090e-01   1.88096129e+00  -2.54853340e-01
C     1.237144911843156e+01   6.764244953561410e+00   3.584180400000000e+00  1.37797860e-01   3.80938460e-01  -5.15634070e-01
C     4.851934709024876e+00   7.173980074713611e+00   3.528333300000000e+00  3.51150860e-01  -1.10459198e+00  -2.05132360e-01
C     5.883269456991458e+00   6.146157742573126e+00   3.505627500000000e+00 -3.93145480e-01   2.33592328e+00  -1.46232680e-01
C     7.230972779073170e+00   6.562843449541218e+00   3.414189900000000e+00  4.45216980e-01   2.11421900e-01   4.47714390e-01
C     8.263279973002586e+00   5.581217578774392e+00   3.531814200000000e+00 -1.18163164e+00  -7.28762070e-01  -7.28329070e-01
C     9.613293337406859e+00   5.942933675387431e+00   3.468058200000000e+00  2.63993050e-01   2.09930747e+00  -2.52126220e-01
C     1.065107969961565e+01   5.019856424420007e+00   3.465021000000000e+00  5.53171650e-01  -1.59923759e+00   5.01866850e-01
C     3.141706715207857e+00   5.400261740590690e+00   3.511966500000000e+00 -5.88917420e-01   9.63612600e-02  -5.09614100e-02
C     4.166328106761426e+00   4.452055762395722e+00   3.488788500000000e+00  1.01946810e-01  -2.26698310e+00   1.47090200e-01
C     5.529892922735755e+00   4.809457020185545e+00   3.534557100000000e+00 -4.77737200e-02  -1.47080244e+00   1.26821850e-01
C     6.522457904910741e+00   3.776284531128208e+00   3.567961800000000e+00  6.66671940e-01   6.15184050e-01  -2.39546600e-01
C     7.894778556021405e+00   4.190402917078293e+00   3.552443700000000e+00  3.77999320e-01  -1.13097530e-01   3.37321200e-02
C     8.944242134988107e+00   3.211557573122304e+00   3.487140900000000e+00 -3.64584430e-01   3.36040630e-01   3.03812290e-01
C     1.031877728585544e+01   3.626006081688076e+00   3.485516700000000e+00 -1.69815040e-01   7.00386800e-02  -7.21460180e-01
C     2.464369747285183e+00   2.660613330533320e+00   3.374778600000000e+00  2.16097190e-01  -6.50545650e-01   5.59092730e-01
C     3.852371783385991e+00   3.033241946168093e+00   3.433929900000000e+00 -1.38926271e+00   7.39518780e-01  -4.30036700e-02
C     4.825636315673820e+00   2.015380634850434e+00   3.466056600000000e+00  3.97164770e-01  -3.38379600e-02  -4.00108220e-01
C     6.188148029992284e+00   2.385500965150630e+00   3.539879700000000e+00 -5.04378700e-02   1.18643842e+00   6.49999700e-02
C     7.209572610523981e+00   1.431940981558794e+00   3.548892000000000e+00  8.62159150e-01  -1.29066372e+00  -3.34946080e-01
C     8.580783634295148e+00   1.837083480600295e+00   3.476971800000000e+00  6.85031660e-01  -6.56329920e-01   1.79444400e-01
C     2.116077812508524e+00   1.268486414121707e+00   3.365959800000000e+00 -2.51018200e-01  -3.99858310e-01  -2.63701440e-01
