32
Lattice="9.86 0 0 4.93 8.53901048131456 0 0 0 30 " PBC="1 1 1" Properties=species:S:1:pos:R:3:force:R:3 Energy="-252.01436639"
C     5.081525324800000e+00   8.031437522311403e+00   1.285713000000000e-01 -2.29426832e+00  -1.64844910e-01  -1.32935826e+00
C     1.301467446200000e+00   2.021045448646224e-01  -5.388839999999817e-02  4.85804434e+00   1.64891043e+00   3.31845744e+00
C     7.495406401300000e+00   8.029644927841337e+00   2.806989000000000e-01 -7.52151190e-01   6.55889800e-02  -3.68294875e+00
C     3.739011733900000e+00   2.083237623675208e-01   9.780630000000000e-02  3.41485831e+00   8.37659190e-01  -2.02487540e-01
C     9.969826941099999e+00   8.048979467710781e+00  -8.216639999999842e-02 -1.36078710e-01   1.80828435e+00   1.70459372e+00
C     6.289666392000000e+00   3.177157447752288e-01  -5.826749999999947e-02  9.47552210e-01  -7.42002128e+00   1.27786037e+00
C     1.243041286560000e+01   8.100401474211447e+00   1.837431000000000e-01  1.79733502e+00  -1.97388737e+00  -2.71046525e+00
C     8.787654747500001e+00   2.126125657712056e-01   1.140249000000000e-01 -1.00663633e+00   2.15223149e+00   1.28571301e+00
C     1.474757981500000e+00   1.684275670495818e+00   2.514960000000000e-02 -2.05095762e+00  -1.17559299e+00  -4.11936630e-01
C     2.666159726700000e+00   2.458994474314778e+00  -6.042090000000044e-02  8.69050610e-01  -4.83283780e+00   1.10735251e+00
C     3.880628843300000e+00   1.663784265486543e+00   4.465440000000000e-02 -1.55905132e+00  -2.41071925e+00  -9.55537650e-01
C     5.145002180700000e+00   2.184957134386427e+00  -7.242510000000024e-02 -9.13169110e-01   6.83039759e+00   7.33061940e-01
C     6.445909135199999e+00   1.624765171708078e+00   1.163910000000000e-02 -5.43438862e+00   1.46080821e+00  -4.42883480e-01
C     7.559249063199999e+00   2.343754465189738e+00   1.355514000000000e-01  4.13891037e+00   2.35320716e+00   6.61762160e-01
C     8.834296590099999e+00   1.700441042015716e+00   1.985811000000000e-01  1.59805130e-01  -2.56602612e+00  -8.27666490e-01
C     1.010838937320000e+01   2.385464286560555e+00   1.140621000000000e-01 -2.58300925e+00  -1.03970460e-01  -8.60298290e-01
C     2.627040866900000e+00   3.812165146212623e+00  -6.920249999999939e-02  2.74303029e+00   8.31814600e-02  -1.55408751e+00
C     3.850480956600000e+00   4.532449209853366e+00  -2.145513000000001e-01  6.05798020e-01  -3.73036850e+00   8.28662130e-01
C     5.036077626800000e+00   3.725740027952342e+00  -3.530429999999996e-02  1.11629121e+00  -1.35393534e+00  -7.91816500e-02
C     6.265796120799999e+00   4.398110935278861e+00   1.773630000000000e-01 -1.38170505e+00   2.97637002e+00  -1.79344493e+00
C     7.492320319899999e+00   3.773113689584439e+00   1.885728000000000e-01  2.38118856e+00  -1.05775068e+00  -8.97236780e-01
C     8.722499522400000e+00   4.508800420329004e+00  -1.575689999999952e-02  8.92119990e-01  -2.75643027e+00   9.27412040e-01
C     1.000678542560000e+01   3.778735176353738e+00  -9.912960000000126e-02  7.13776980e-01   2.79224270e-01   7.30367700e-01
C     1.130968705810000e+01   4.408444248031024e+00  -1.863023999999989e-01 -6.20421562e+00   5.37148187e+00   1.38417338e+00
C     3.853999349700000e+00   5.888257325918167e+00  -2.853897000000032e-01  1.48454460e-01   3.63392070e+00   2.59932659e+00
C     5.060783878100000e+00   6.605453085638607e+00   2.994720000000000e-02  7.35565350e-01  -8.97403570e-01  -1.37392452e+00
C     6.251602700099999e+00   5.850672529730027e+00   1.894860000000000e-02  2.66405418e+00   1.06171202e+00   8.79370290e-01
C     7.615375584900000e+00   6.628173513943581e+00   2.010300000000000e-02 -7.02799117e+00  -3.79501890e-01   1.86818506e+00
C     8.709727322099999e+00   5.880091640976352e+00   6.683399999999999e-02  5.26097407e+00   1.73027877e+00  -3.46531510e-01
C     1.003953161950000e+01   6.648337704071262e+00   8.872170000000000e-02 -2.35646913e+00  -1.63889215e+00  -9.94443170e-01
C     1.120779460690000e+01   5.886318799758998e+00   1.563180000000000e-02  3.88009919e+00   3.43973560e-01  -1.62778039e+00
C     1.251904918770000e+01   6.641700160444949e+00  -7.307040000000242e-02 -3.62681684e+00  -1.75047490e-01   7.83914460e-01
