32
Lattice="9.86 0 0 4.93 8.53901048131456 0 0 0 30 " PBC="1 1 1" Properties=species:S:1:pos:R:3:force:R:3 Energy="-257.71731022"
C     4.953662718199999e+00   7.880414533599608e+00  -9.773579999999882e-02  1.52397951e+00   4.08618500e-02   5.26907600e-02
C     1.288410390500000e+00   4.367217136922640e-02  -1.066098000000011e-01 -8.88683890e-01   7.21553100e-01   5.32946980e-01
C     7.446533339299999e+00   7.881494462255013e+00  -4.400189999999782e-02 -1.02043834e+00  -1.06720298e+00  -2.56752880e-01
C     3.719580385400000e+00   4.513037818889600e-02  -4.691309999999760e-02  1.08494714e+00   3.07500590e-01   3.61771400e-02
C     9.880699196599998e+00   7.874787667253707e+00  -4.311780000000098e-02  9.26207460e-01  -7.49815760e-01   1.11727520e-01
C     6.194829658200001e+00   3.190823280124480e-02  -4.899569999999898e-02 -2.24009120e-01   1.99913070e-01   6.12478500e-02
C     1.236458962550000e+01   7.870935634236075e+00  -4.846889999999959e-02 -3.08445780e-01   2.26431430e-01  -2.68409930e-01
C     8.660729629699999e+00   5.496552506965520e-02  -1.326600000000013e-01  6.15615800e-02  -8.89329040e-01   3.76056150e-01
C     1.289502336200000e+00   1.482467514684957e+00  -5.108940000000217e-02 -1.75445210e-01  -7.04964630e-01  -8.73737040e-01
C     2.530976365900000e+00   2.200483958702629e+00  -5.853749999999991e-02 -1.17092609e+00  -1.06900317e+00   3.56217410e-01
C     3.739736246700000e+00   1.464072351358417e+00  -5.066970000000026e-02  4.64020310e-01   5.46964870e-01   5.55998200e-02
C     4.982096197400001e+00   2.175976742454715e+00  -3.491400000000056e-02 -5.35203320e-01  -3.50091200e-02   9.85948100e-02
C     6.191800567600000e+00   1.448005434629354e+00  -3.518610000000066e-02  1.27048705e+00   9.07672020e-01  -1.97670810e-01
C     7.451723791199999e+00   2.182077011541627e+00  -5.502899999999755e-02 -8.92206720e-01  -2.52284690e-01  -2.08877320e-01
C     8.683144515600000e+00   1.459894982041496e+00  -1.433490000000006e-01 -1.05554522e+00   5.32634790e-01   3.79485050e-01
C     9.892971445600001e+00   2.164373764234282e+00  -1.175750999999998e-01  1.23261722e+00   6.97511180e-01   2.78302590e-01
C     2.491117365200000e+00   3.597644282379347e+00  -1.638479999999731e-02  9.07658470e-01   1.04437000e+00  -3.34572870e-01
C     3.739372807100000e+00   4.306920536830111e+00   2.763510000000000e-02 -3.36406200e-01   6.85038300e-01  -3.91578360e-01
C     4.975725700700000e+00   3.609996217208982e+00  -6.014700000001483e-03 -6.70168240e-01  -8.38506580e-01   1.05194330e-01
C     6.183395361300000e+00   4.316801538197148e+00  -9.624299999998698e-03  1.07100942e+00  -1.79645410e-01   1.22834500e-01
C     7.426040118099999e+00   3.611100823604674e+00  -2.373000000000047e-02  6.43008780e-01  -9.22147700e-02  -1.08453030e-01
C     8.676042899900001e+00   4.340088444457365e+00  -3.686549999999755e-02 -5.85981080e-01  -1.53896402e+00  -1.09669040e-01
C     9.898203555999999e+00   3.590847913158106e+00  -8.292570000000055e-02 -3.39123740e-01   7.35581740e-01  -9.31443600e-02
C     1.112440898130000e+01   4.320247541266457e+00  -8.946359999999842e-02  3.14676650e-01  -1.10417659e+00   6.07561530e-01
C     3.750873806900000e+00   5.741889634939858e+00  -4.412399999999650e-03 -2.47870600e-02   6.32562900e-02   2.03390300e-01
C     5.007863779100000e+00   6.461194530248859e+00  -6.040500000001003e-03 -2.03467332e+00  -2.96823780e-01  -3.83366830e-01
C     6.205562416099999e+00   5.727118683831344e+00  -7.937999999999334e-03  8.09297340e-01   8.53868240e-01  -1.35284500e-02
C     7.446635488900000e+00   6.446322818816681e+00  -3.274560000000193e-02 -2.85607750e-01   2.68826810e-01   1.69036430e-01
C     8.675470822699999e+00   5.746439902844442e+00  -2.074950000000086e-02  4.66917660e-01   1.80750300e-02  -1.30843520e-01
C     9.926546766900000e+00   6.435207930435284e+00  -3.073470000000000e-02 -1.18397046e+00   9.94674270e-01  -1.02851860e-01
C     1.114558835990000e+01   5.725283821259403e+00  -4.338180000000236e-02 -2.66393070e-01   6.49094850e-01  -7.64985000e-03
C     1.235878647320000e+01   6.458357273236669e+00  -2.221199999999968e-02  1.22162602e+00  -6.75887920e-01  -6.59570200e-02
