32
Lattice="9.86 0 0 4.93 8.53901048131456 0 0 0 30 " PBC="1 1 1" Properties=species:S:1:pos:R:3:force:R:3 Energy="-253.03317361"
C     4.947871644399999e+00   8.487159388222715e+00  -4.247295000000015e-01 -2.46702966e+00   3.23286047e+00   5.89668550e-01
C     1.189740138000000e+00   7.364315886287360e-01  -4.465146000000004e-01  2.20396996e+00  -2.65285367e+00   5.30248760e-01
C     2.456338039300000e+00   3.824853347274960e-02  -4.458140999999998e-01 -1.35503061e+00  -3.61181350e+00   2.06337600e-01
C     3.644487907200000e+00   6.346447051248304e-01  -1.896044999999980e-01  3.96489777e+00   2.91904045e+00  -7.10585300e-01
C     9.867025249999999e+00   8.507635764573545e+00  -1.498889999999982e-01 -3.91255670e-01   1.54309968e+00   7.24495200e-02
C     6.150971096400000e+00   7.515785977587888e-01  -2.707793999999986e-01  2.74732900e-01  -5.15558356e+00   1.98566360e+00
C     1.228284223890000e+01   8.517366052405610e+00  -4.113569999999811e-02  1.92775742e+00   8.70618860e-01  -1.92079750e+00
C     8.581497627699999e+00   7.108885904095976e-01  -3.358488000000008e-01  1.30044143e+00  -1.94439131e+00  -3.08850500e-02
C     1.236520710800000e+00   2.067044585761355e+00  -8.219610000000088e-02  1.21040575e+00   1.91918577e+00  -1.15562451e+00
C     2.475660385500000e+00   2.810523505129340e+00   3.866730000000000e-02  1.05548392e+00  -5.82143700e-02   1.39246793e+00
C     3.794473494400000e+00   2.104619135136919e+00  -8.951820000000055e-02 -4.58646893e+00  -1.00341841e+00   6.12736950e-01
C     4.963330053800000e+00   2.804918754820582e+00  -4.044689999999918e-02  1.98864287e+00   9.58090270e-01  -8.59138840e-01
C     6.245558273599999e+00   2.086498500997310e+00  -2.914320000000004e-01 -3.46137008e+00   3.66723526e+00   4.97126290e-01
C     7.409993756899999e+00   2.827390100189855e+00  -3.498285000000010e-01  1.93063422e+00  -4.78857730e-01  -1.18652884e+00
C     8.652906409900000e+00   2.129330092174885e+00  -4.863189000000006e-01 -3.94015190e-01  -1.30787927e+00   1.98156718e+00
C     9.902445278699998e+00   2.769544793835820e+00  -1.744874999999979e-01 -2.58197038e+00   1.85007927e+00  -5.33995900e-02
C     2.438510469100000e+00   4.203081387547442e+00   4.476162000000000e-01  1.22442790e+00   1.27448591e+00  -1.37428301e+00
C     3.790041522999999e+00   4.995929620686804e+00   4.011174000000000e-01 -2.82483272e+00  -1.35287938e+00  -2.05183709e+00
C     4.950695745599999e+00   4.272527878929711e+00   1.024110000000000e-02 -1.14483055e+00  -2.70254357e+00   2.39251810e-01
C     6.120887348999999e+00   4.856618397188958e+00  -4.176504000000030e-01  1.79023486e+00   4.42181955e+00   1.63056990e+00
C     7.393558615899999e+00   4.222119282192812e+00  -4.206909000000003e-01 -8.81572410e-01   1.24922980e-01   5.23016200e-01
C     8.601783542400000e+00   4.930102730456904e+00  -1.825992000000021e-01 -6.95780200e-02  -4.91245100e-01  -7.32905970e-01
C     9.757581714999999e+00   4.168816473243822e+00   5.477640000000000e-02  4.47377377e+00   1.75057102e+00   7.02431490e-01
C     1.105208607850000e+01   4.964289598204737e+00   3.963954000000000e-01 -8.01938790e-01  -1.46743757e+00  -5.28593680e-01
C     3.687501910700000e+00   6.382078890349562e+00   6.231120000000000e-02  2.79554581e+00   6.26965260e-01   1.15377193e+00
C     4.956678004800000e+00   7.136598750268187e+00  -2.305241999999978e-01 -5.24970430e-01  -4.06955797e+00   3.21788000e-03
C     6.168054187299999e+00   6.332080763846438e+00  -3.232542000000009e-01  9.04490630e-01   8.40377310e-01  -1.61751673e+00
C     7.463484306200000e+00   7.064862694005916e+00  -4.867784999999998e-01 -2.14625689e+00   3.80365910e-01   1.07187058e+00
C     8.668472835599999e+00   6.326654649636921e+00  -2.622456000000000e-01  1.06311794e+00   2.99210788e+00   1.15864900e+00
C     9.966536806999999e+00   7.139039882584209e+00   7.325760000000001e-02 -4.94395290e+00  -1.86713300e+00  -1.51602141e+00
C     1.108311653380000e+01   6.429643484255991e+00   3.839967000000000e-01  2.53928579e+00  -2.42797932e+00  -6.51297170e-01
C     1.236336289360000e+01   7.092716604631257e+00   1.988844000000000e-01 -2.07276970e+00   1.21996189e+00   3.83695300e-02
