32
Lattice="9.86 0 0 4.93 8.53901048131456 0 0 0 30 " PBC="1 1 1" Properties=species:S:1:pos:R:3:force:R:3 Energy="-256.24014105"
C     9.873336734599999e+00   2.459846411390368e-01   3.651018000000000e+00 -1.24476302e+00  -6.65808520e-01   8.40255330e-01
C     1.226245210400000e+00   9.233100531262608e-01   3.657766500000000e+00  4.79418110e-01   6.39613700e-01   4.66369880e-01
C     2.451973362400000e+00   2.887667914459328e-01   3.868599000000000e+00  2.31820860e-01  -3.43650829e+00  -4.19609350e-01
C     3.667826280699999e+00   9.521163195904360e-01   3.801336300000000e+00  4.95378600e-02   2.23232704e+00   3.84071810e-01
C     4.851923787200000e+00   1.933372012443872e-01   3.811383300000000e+00  2.39741318e+00   2.75229639e+00   5.45839400e-02
C     6.103144476200000e+00   9.531866845541039e-01   3.792412800000000e+00  8.86544150e-01  -3.41443510e-01   2.37507660e-01
C     7.361870695800000e+00   2.660139149011344e-01   3.793644900000000e+00  5.23065840e-01  -2.84800480e-01  -5.30483000e-02
C     8.660732390500002e+00   9.899291073583912e-01   3.713799000000000e+00 -2.86239587e+00  -2.38263967e+00   1.07732800e-02
C     1.107120895690000e+01   2.317235116512316e+00   3.601693200000000e+00 -5.65436070e-01   1.94434372e+00   6.26519000e-03
C     2.416286374200000e+00   3.079673542409464e+00   3.619854000000000e+00  1.48735083e+00   1.53956231e+00   1.77820670e-01
C     3.665986700500000e+00   2.452899670194574e+00   3.763428000000000e+00  1.34812220e+00  -3.19821762e+00  -2.85469540e-01
C     4.961161790499999e+00   3.117139902522246e+00   3.806232300000000e+00 -2.75934249e+00  -1.08621197e+00  -3.22223470e-01
C     6.174064054500000e+00   2.388483936836598e+00   3.827331000000000e+00 -2.52436379e+00  -1.38993162e+00  -3.04233010e-01
C     7.343662431000000e+00   3.088049628569506e+00   3.792261900000000e+00  2.61164064e+00   8.12155480e-01  -1.73651500e-02
C     8.587523813199999e+00   2.369499069446309e+00   3.726549300000000e+00  2.32350470e-01   4.52044700e-01  -6.00705200e-02
C     9.821967268500000e+00   3.020409137903758e+00   3.659008200000000e+00  6.11092910e-01   2.19943368e+00  -4.37735760e-01
C     1.235225925180000e+01   4.542261216015723e+00   3.586329000000000e+00 -2.04342990e+00  -3.43019310e-01   5.80046820e-01
C     3.700133014400000e+00   5.283993480790024e+00   3.772336800000000e+00 -4.79437410e-01  -2.59626514e+00  -6.62158700e-01
C     4.919666670700000e+00   4.494367528645395e+00   3.780178800000000e+00  8.45978600e-02   2.40813374e+00   5.17317630e-01
C     6.146266496000000e+00   5.190811870487443e+00   3.868937400000000e+00  1.25741000e-03   1.86392458e+00   1.28291510e-01
C     7.363146974199999e+00   4.522582383243725e+00   3.824292000000000e+00  1.10353515e+00  -9.08551790e-01   4.53010630e-01
C     8.637552664399999e+00   5.216123376132469e+00   3.845403300000001e+00 -1.48214752e+00  -1.06413977e+00  -3.75585030e-01
C     9.791856406099999e+00   4.469103841459057e+00   3.663502200000000e+00  3.32432975e+00   1.76697000e-03  -1.81289760e-01
C     1.107742420790000e+01   5.239187841169682e+00   3.569216400000000e+00 -5.89015710e-01  -2.60462599e+00   8.79671210e-01
C     1.351461393000000e+01   6.687818587536486e+00   3.818184000000000e+00  1.14872144e+00  -1.10760150e-01  -9.67111200e-02
C     4.901600488500000e+00   7.374487982521660e+00   3.796053600000000e+00  1.42250659e+00  -4.35737210e-01   3.91034670e-01
C     6.169122715500000e+00   6.631263440275875e+00   3.943490700000000e+00 -6.14750850e-01   7.85144880e-01  -6.93690070e-01
C     7.424101888599999e+00   7.345505641661386e+00   3.982339200000000e+00 -6.18347740e-01   4.09022480e-01  -6.41355730e-01
C     8.691035670800000e+00   6.613282418957614e+00   3.912232500000000e+00 -3.39202419e+00   1.07309624e+00   1.20790500e-02
C     9.851471445100000e+00   7.349047025477757e+00   3.804553800000000e+00  3.74216100e-01  -1.02660030e+00   2.45957710e-01
C     1.105662527740000e+01   6.604852537031548e+00   3.743740800000000e+00  1.27868391e+00   2.59111382e+00  -8.91475700e-02
C     1.228687764110000e+01   7.369346473531443e+00   3.831141300000000e+00 -4.20750680e-01   1.71281600e-01  -7.45363940e-01
