32
Lattice="9.86 0 0 4.93 8.53901048131456 0 0 0 30 " PBC="1 1 1" Properties=species:S:1:pos:R:3:force:R:3 Energy="-257.31806038"
C     9.916674540499999e+00   3.550630710819192e-01  -1.945371000000016e-01 -9.92331260e-01  -4.72922950e-01   3.13015300e-01
C     1.288064255200000e+00   1.060826547401421e+00  -1.791641999999989e-01 -5.27311500e-01  -4.25611820e-01  -2.03936210e-01
C     2.473859555100000e+00   3.170190469101656e-01  -2.632916999999999e-01  2.18698398e+00   1.54576880e+00   6.02433270e-01
C     3.737595788600000e+00   1.076993114382786e+00  -1.811250000000015e-01 -1.11291775e+00  -1.04093217e+00  -8.82422370e-01
C     4.952811898800000e+00   3.158550943916368e-01  -2.917860000000019e-01 -3.10925250e-01   2.28061018e+00   5.93737690e-01
C     6.159739742299999e+00   1.055782980861409e+00  -2.455202999999990e-01  1.37714272e+00  -1.39544220e-01   1.37466990e-01
C     7.410292169800000e+00   3.662618979363344e-01  -2.000204999999973e-01  9.10486130e-01  -1.33555392e+00  -1.72695470e-01
C     8.672186604599998e+00   1.051491530364475e+00  -1.743096000000008e-01 -6.63020640e-01   1.14480721e+00  -1.24400020e-01
C     1.115719722810000e+01   2.470561588691196e+00  -1.222008000000017e-01 -1.70865500e-02   1.14162840e+00   2.27189400e-02
C     2.517685874700000e+00   3.238153563583338e+00  -1.079706000000016e-01 -1.19857600e-01  -2.45589308e+00  -5.96923700e-02
C     3.745982606000000e+00   2.519281169155151e+00  -1.397748000000014e-01  4.97874600e-02  -1.47391825e+00  -1.90632440e-01
C     4.994616277500000e+00   3.187899949886652e+00  -2.064885000000025e-01 -1.61909489e+00   1.18644931e+00   5.03596390e-01
C     6.183144177799999e+00   2.475770128913681e+00  -2.106543000000016e-01  1.45944996e+00   2.98809890e-01  -4.71651120e-01
C     7.439323214300000e+00   3.217361926965586e+00  -2.415482999999981e-01 -2.22116750e-01  -1.66544374e+00   3.21075940e-01
C     8.666036133799999e+00   2.508866308852904e+00  -1.843059000000018e-01  6.12162300e-01  -1.56679065e+00   8.00004500e-02
C     9.924350599800000e+00   3.180077447776029e+00  -1.317281999999977e-01 -1.05450555e+00   7.76660000e-01  -6.51124520e-01
C     1.236128534230000e+01   4.616389305283756e+00  -1.078979999999987e-01 -1.66380080e-01   9.71354820e-01   7.42920100e-02
C     3.733018678000000e+00   5.335334793641652e+00  -1.178436000000005e-01 -6.95270000e-04  -4.94271190e-01  -1.71262730e-01
C     4.948214180800000e+00   4.624909615330805e+00  -1.780535999999984e-01  1.27243228e+00  -4.65514910e-01  -3.07809280e-01
C     6.187385851199999e+00   5.323233478769606e+00  -2.713722000000018e-01  9.72861270e-01  -1.12137230e-01   5.45066970e-01
C     7.460640632900001e+00   4.607736725964372e+00  -2.594093999999991e-01 -1.93920855e+00   1.37455566e+00  -9.90824400e-02
C     8.659993975099999e+00   5.350161675268811e+00  -2.399084999999985e-01  5.96969040e-01  -6.68599640e-01  -1.70058950e-01
C     9.885828516499998e+00   4.624944198323249e+00  -2.251928999999997e-01  2.04981020e-01  -1.26954707e+00   8.67892530e-01
C     1.111144115860000e+01   5.279012163636411e+00  -1.423695000000009e-01  8.61033260e-01   2.87366796e+00  -2.96299080e-01
C     1.362503641510000e+01   6.739379609127766e+00  -1.478733000000005e-01 -9.42394020e-01   7.27674650e-01  -3.33083100e-02
C     4.970607128200000e+00   7.460570174121064e+00  -1.763088000000010e-01  1.50703544e+00   1.90972010e-01  -3.25131570e-01
C     6.233182543899999e+00   6.742949598629243e+00  -2.425025999999981e-01 -2.16232283e+00  -4.06686680e-01  -1.70464990e-01
C     7.434759759799999e+00   7.440572665477951e+00  -3.069528000000012e-01  4.25137210e-01   1.00365060e+00   4.45309140e-01
C     8.670103087999999e+00   6.764772320762455e+00  -2.551799999999993e-01  1.43355110e-01  -5.48361280e-01  -5.18657300e-01
C     9.900100915800000e+00   7.467333241201434e+00  -2.880018000000000e-01  5.62997850e-01  -1.35141045e+00   5.27778830e-01
C     1.114765856550000e+01   6.745605401668733e+00  -1.772625000000012e-01 -6.91532760e-01  -8.49266460e-01  -5.06668730e-01
C     1.238248508180000e+01   7.442988351542744e+00  -1.911924000000020e-01 -6.01113770e-01   1.22579622e+00   3.20913480e-01
