32
Lattice="9.732 0 0 4.866 8.42815922963016 0 0 0 30 " PBC="1 1 1" Properties=species:S:1:pos:R:3:force:R:3 Energy="-257.69799538"
C     5.571904349894267e-04   1.489959524631509e-04   2.999087544934858e+00 -6.36943600e-02   1.16310500e-02   1.84365500e-02
C     1.216250842233047e+00   7.030310253350429e-01   3.000026745924362e+00  2.10094400e-02   1.39435700e-02  -4.19418000e-03
C     2.432227992941026e+00   8.600968254804587e-04   3.001107919814781e+00  6.46105800e-02  -5.68617800e-02  -1.23887000e-03
C     3.650678091368256e+00   7.015989439385015e-01   3.001145444481634e+00 -9.32972100e-02   8.58465000e-02  -7.86817000e-03
C     4.865354788726745e+00  -1.152381086575485e-03   3.001085264814755e+00  1.00721340e-01   7.49128100e-02  -7.12847000e-03
C     6.083526056564967e+00   7.018453455122661e-01   2.999188043917450e+00 -9.25619200e-02   3.82808600e-02   1.56317300e-02
C     7.298745563769311e+00   2.595946465922994e-05   2.999532954576918e+00  4.96871700e-02  -3.75721000e-03   1.26680000e-04
C     8.515328640972129e+00   7.031496613331287e-01   3.000151803559393e+00  2.60752700e-02  -2.19367300e-02  -1.22418800e-02
C     1.217305051258748e+00   2.108248836372748e+00   2.999592664233036e+00 -1.17467190e-01  -4.17655700e-02   2.72116000e-03
C     2.432004922771499e+00   2.810052642058765e+00   2.999146950616308e+00  1.07355240e-01  -3.70979300e-02   6.50790000e-03
C     3.650048288860123e+00   2.108147178682234e+00   2.998961342020006e+00 -3.34235100e-02  -7.57907400e-02   7.45289000e-03
C     4.865871446973010e+00   2.810216350135621e+00   2.999137598011399e+00  3.07517300e-02  -3.25239300e-02   1.47761800e-02
C     6.083145405647124e+00   2.107725390113190e+00   3.000425966100662e+00 -7.14971200e-02  -8.45613500e-02  -1.34263500e-02
C     7.298103931418503e+00   2.808265534518936e+00   3.000379604146318e+00  5.40870300e-02   1.42572400e-01   7.23498000e-03
C     8.514894627299681e+00   2.108228129335888e+00   3.000081220947504e+00  6.89467000e-03  -7.43843100e-02   4.29855000e-03
C     9.730927473367554e+00   2.809869981555879e+00   3.000309416206828e+00  8.50283800e-02   2.67440000e-04   6.20660000e-04
C     2.433962929184788e+00   4.213257077539255e+00   3.000268558380262e+00 -1.02285460e-01   1.21206840e-01  -2.16926200e-02
C     3.649054724742867e+00   4.917066742659155e+00   2.999163734304493e+00  7.12338000e-02  -4.95431000e-02   1.19248100e-02
C     4.867045916470386e+00   4.214074287810026e+00   3.000810758248240e+00 -1.09733640e-01   2.11858900e-02  -1.79435300e-02
C     6.081843015616820e+00   4.915469586041702e+00   3.000422613026684e+00  6.91628200e-02   8.52390000e-02   4.22203000e-03
C     7.299192166252439e+00   4.214994056341602e+00   3.001209511550301e+00 -3.42557400e-02  -8.63679800e-02  -1.59336700e-02
C     8.514953320329608e+00   4.917016551311062e+00   2.999476252840513e+00  5.07434200e-02  -4.18157900e-02   2.12125100e-02
C     9.732550463015370e+00   4.214057888963879e+00   3.000895383152828e+00 -6.30907800e-02   4.23996700e-02  -2.10740900e-02
C     1.094767828272424e+01   4.917572951251639e+00   2.998902438892586e+00  9.81661300e-02  -6.95868800e-02   2.03267800e-02
C     3.649987928199217e+00   6.321489104187775e+00   2.998896534966326e+00 -5.81200900e-02  -2.44742600e-02   1.10525100e-02
C     4.865263533032141e+00   7.023053891537054e+00   3.000614685155585e+00  7.22214300e-02   5.19808700e-02  -2.30913900e-02
C     6.082171580477299e+00   6.321194288081230e+00   2.999645223146387e+00 -1.48576000e-03  -3.52615600e-02   1.44623400e-02
C     7.299035701991150e+00   7.022886239263702e+00   3.000855782168367e+00 -1.39982200e-02   5.42563000e-02  -3.44430000e-03
C     8.515799845987386e+00   6.320643697125375e+00   3.000670239330519e+00  1.04283100e-02   5.60123100e-02  -3.63214000e-03
C     9.732962377974770e+00   7.024043637630435e+00   3.000865059015898e+00 -5.80187400e-02  -6.57698400e-02  -1.26270000e-03
C     1.094927886493670e+01   6.322008004783872e+00   2.999713221360985e+00 -2.68788900e-02  -2.93560000e-02  -3.87630000e-03
C     1.216527105337611e+01   7.023260450674203e+00   2.999372613972510e+00  2.16318500e-02   3.11195000e-02  -2.95962000e-03
