26
Lattice="8.88768389401873 1.33226762955019e-15 0 4.44384194700937 7.69696003302603 0 0 0 30 " PBC="1 1 1" Properties=species:S:1:pos:R:3:force:R:3 Energy="-208.49596926"
C     1.068423676390017e+00   1.146713117365478e+00   3.639573600000000e+00 -4.61435930e-01   4.45302210e-01   2.82474600e-02
C     3.481504819768601e+00   5.770944333821079e-01   3.574519500000000e+00 -2.61380590e-01   1.26604890e-01   2.78547050e-01
C     4.849873784447495e+00   1.018647478815124e+00   3.480248100000000e+00 -8.89231660e-01  -6.60076920e-01   8.37708980e-01
C     5.845953490105208e+00   3.310693417703900e-03   3.519085800000000e+00 -5.35632260e-01  -2.18027900e-01  -3.66475410e-01
C     7.187825113919190e+00   3.508973265644724e-01   3.518185200000000e+00  1.37408741e+00   1.56686763e+00   6.24186500e-01
C     1.267280950440875e+01   7.074074380189814e+00   3.632812200000000e+00 -3.60540180e-01   7.47746800e-01  -1.04089867e+00
C     5.136620066901092e+00   7.445366495684978e+00   3.626268000000000e+00  4.54235080e-01   2.44249721e+00   7.50327200e-02
C     6.142181953676912e+00   6.511164597477393e+00   3.604019400000000e+00  2.45103529e+00  -1.75250518e+00   3.84442180e-01
C     7.572810610422267e+00   6.874468269066221e+00   3.637943100000000e+00 -1.35756935e+00   1.52910766e+00   3.48539700e-01
C     8.604783494153319e+00   5.940806543513541e+00   3.795285600000000e+00 -1.17530440e-01  -1.29010208e+00  -2.03176147e+00
C     9.962789063866733e+00   6.317114767860255e+00   3.570016500000000e+00 -5.78530980e-01   5.64199760e-01   6.23170150e-01
C     1.099236840543413e+01   5.359997018433753e+00   3.494366100000000e+00 -1.00076490e-01  -1.19966485e+00   1.05683871e+00
C     3.468182851535876e+00   5.721884526346662e+00   3.535932900000000e+00 -2.74198110e-01  -7.74122940e-01   2.49500020e-01
C     4.468585882145288e+00   4.706930279862732e+00   3.591405300000000e+00 -7.29127280e-01   8.22174350e-01  -7.79337240e-01
C     5.806682506698817e+00   5.105941149635534e+00   3.594348300000000e+00  6.28973320e-01   1.72715427e+00   3.62177250e-01
C     6.839264907799407e+00   4.185152897611431e+00   3.634309500000000e+00  2.65709847e+00  -1.70179289e+00  -1.36805550e-01
C     8.257987445453328e+00   4.550440383678391e+00   3.702204600000000e+00 -9.80544930e-01   5.32039810e-01   7.51861610e-01
C     9.293376888173395e+00   3.595906426764358e+00   3.735221400000000e+00 -2.21134790e-01  -2.57029903e+00  -1.25296770e+00
C     1.068191360734034e+01   3.973636125689414e+00   3.646357800000000e+00 -1.00544723e+00  -6.38388820e-01  -4.79848020e-01
C     2.806901973363022e+00   2.951327664805620e+00   3.577077900000000e+00 -2.47406837e+00  -5.03376380e-01   6.00944030e-01
C     4.125790535487234e+00   3.340718104236926e+00   3.512853600000000e+00  1.00805943e+00   8.21212580e-01   5.83920610e-01
C     5.165539076104868e+00   2.414599399513646e+00   3.540635700000000e+00  7.11967500e-01  -1.87910661e+00  -6.42749840e-01
C     6.538108582340738e+00   2.792212027676645e+00   3.558147300000000e+00 -5.19612290e-01  -2.95538220e-01   2.42451890e-01
C     7.519306705641476e+00   1.756649863438793e+00   3.564473100000000e+00  1.78000651e+00   3.19358820e-01  -3.49163860e-01
C     8.927624209583811e+00   2.138153843684159e+00   3.579309000000000e+00 -1.47582170e-01   1.40644718e+00   1.21622507e+00
C     2.444198703591588e+00   1.550641190053445e+00   3.681540900000000e+00 -5.18199600e-02   4.32288650e-01  -1.18378615e+00
