2
Lattice="2.445 0 0 1.2225 2.11743211225295 0 0 0 30 " PBC="1 1 1" Properties=species:S:1:pos:R:3:force:R:3 Energy="-16.12100682"
C     0.000000000000000e+00   0.000000000000000e+00   3.000000000000000e+00  0.00000000e+00   0.00000000e+00  -0.00000000e+00
C     1.222500000000000e+00   7.058107040843173e-01   3.000000000000000e+00  0.00000000e+00  -0.00000000e+00   0.00000000e+00
