32
Lattice="9.86 0 0 4.93 8.53901048131456 0 0 0 30 " PBC="1 1 1" Properties=species:S:1:pos:R:3:force:R:3 Energy="-250.67427081"
C     1.289512639900000e+00   7.396268009602472e-01   3.796309800000000e+00 -2.56936120e+00   1.17914933e+00  -6.26866390e-01
C     2.486368789200000e+00   1.424657218273890e+00   3.822599400000000e+00 -2.59263374e+00   1.61731713e+00   8.81567520e-01
C     3.603575266900000e+00   7.877494192015447e-01   3.599324400000000e+00  8.06398246e+00  -1.04142340e+00  -1.23536507e+00
C     4.888508035400000e+00   1.597979320513576e+00   3.529477200000000e+00 -7.91083700e-01  -2.85685657e+00   1.11688477e+00
C     6.074111213199999e+00   7.000180031180335e-01   3.500838300000000e+00 -1.43928324e+00   5.44334495e+00  -8.79591090e-01
C     7.230080358200000e+00   1.422870515721054e+00   3.421931100000000e+00  7.39913036e+00   4.61515220e-01   1.88433109e+00
C     8.617717795400001e+00   6.920459829339056e-01   3.573161400000000e+00 -1.98290060e-01   4.51070748e+00  -3.35884530e-01
C     9.974311121200000e+00   1.509916334653127e+00   3.774870900000000e+00 -6.15126564e+00  -2.12100481e+00  -1.07793644e+00
C     2.461411995300000e+00   2.801075602373849e+00   4.029449100000000e+00  1.79486100e-02   4.68132354e+00   1.88527330e-01
C     3.586162506900000e+00   3.731033275158790e+00   3.958534200000000e+00  4.57900374e+00  -4.80532782e+00  -1.12345078e+00
C     4.999768226100000e+00   3.031077436037050e+00   3.727207200000000e+00 -5.33629387e+00  -4.21123170e+00   5.50614150e-01
C     6.237066447200000e+00   3.572066701167765e+00   3.731038200000000e+00 -1.75945651e+00   3.19628337e+00  -1.63216534e+00
C     7.408992621800000e+00   2.836648351522586e+00   3.569064900000000e+00 -7.05379600e-01   1.72668717e+00   2.41076290e-01
C     8.586582380399999e+00   3.700578979671975e+00   3.685938300000000e+00  1.50714223e+00  -3.86273055e+00  -1.82294922e+00
C     9.808667410300000e+00   2.920186942680207e+00   3.767525100000000e+00  1.71019060e+00  -2.65357210e-01   1.82340703e+00
C     1.107722444430000e+01   3.523410138601153e+00   4.095852600000001e+00 -1.46959635e+00   2.03000316e+00  -1.99244507e+00
C     3.710566915700000e+00   5.089085357787631e+00   3.808707600000000e+00 -1.59179989e+00   8.72911080e-01   3.77302350e-01
C     4.977697651400000e+00   5.771322664773265e+00   3.606698700000000e+00 -4.65619904e+00   1.03912404e+00   4.23049880e-01
C     6.066618303399999e+00   5.017092875040646e+00   3.511533300000000e+00  6.43142622e+00  -1.07804578e+00   1.04163610e+00
C     7.303575171299999e+00   5.721719125944421e+00   3.430109700000000e+00  1.84826034e+00   2.92507602e+00  -1.57962207e+00
C     8.634668318599999e+00   5.096960460202811e+00   3.382495500000000e+00 -4.52025504e+00  -1.80129774e+00   2.26571541e+00
C     9.794752189499999e+00   5.764749078335447e+00   3.591373500000000e+00  4.57938561e+00   1.96431520e-01  -1.85666800e-02
C     1.100034232680000e+01   4.960978767671326e+00   3.940823700000000e+00  3.17140854e+00   2.33178715e+00  -8.52242040e-01
C     1.234128837490000e+01   5.747219685281475e+00   3.817210800000000e+00 -3.98732235e+00   2.05589495e+00   4.14338220e-01
C     4.906576978400000e+00   7.198438947285186e+00   3.587550300000000e+00  4.39505300e-02  -1.30780275e+00  -4.32769420e-01
C     6.109797215400000e+00   7.912870458533040e+00   3.520082100000000e+00  1.80108180e+00  -7.07824580e-01   4.30000240e-01
C     7.343202708500000e+00   7.204979060801922e+00   3.363098100000000e+00  1.95139083e+00  -1.78498783e+00   9.56933280e-01
C     8.704345882000000e+00   7.912885657971694e+00   3.431348700000000e+00 -3.22454489e+00  -7.88454310e-01  -5.80258640e-01
C     9.970815948399999e+00   7.192394010986185e+00   3.391243500000000e+00 -6.45053669e+00  -2.45510688e+00   8.59492530e-01
C     1.110169213290000e+01   7.879880930834712e+00   3.497219700000000e+00 -6.54291380e-01   9.42089400e-01   3.00582150e-01
C     1.226538929940000e+01   7.266535506500670e+00   3.685109100000000e+00  2.99964786e+00  -6.43253431e+00  -2.23161510e-01
C     1.350200299000000e+01   7.869329360974682e+00   3.583028100000000e+00  1.99364344e+00   3.10340720e-01   6.57815960e-01
