32
Lattice="9.86 0 0 4.93 8.53901048131456 0 0 0 30 " PBC="1 1 1" Properties=species:S:1:pos:R:3:force:R:3 Energy="-254.91378379"
C     1.133432685300000e+00   6.660345345998344e-01   3.431121000000000e+00 -1.66506689e+00  -8.21832830e-01   2.49867780e-01
C     2.349212541000000e+00   1.385680221817091e+00   3.474026100000000e+00  3.99803900e-01  -1.72118624e+00   1.57122200e-02
C     3.595210683800000e+00   6.154052898321328e-01   3.416753700000000e+00 -2.01660175e+00   1.98248618e+00   9.19351790e-01
C     4.750786119000000e+00   1.390063808237104e+00   3.569901600000000e+00  1.31743327e+00  -7.71420160e-01  -1.57266394e+00
C     5.956668654600000e+00   6.935855665234496e-01   3.381303000000000e+00  2.08095626e+00  -2.72995638e+00   1.23648610e+00
C     7.247512197300000e+00   1.293276771539553e+00   3.374658300000000e+00 -1.84610329e+00   3.60217300e-01   4.31228410e-01
C     8.440687510000000e+00   6.332777803271921e-01   3.547361700000000e+00  2.99417277e+00  -7.71740900e-02  -1.09666175e+00
C     9.757608139800000e+00   1.358934503971845e+00   3.485750100000000e+00 -2.69021264e+00  -1.84841958e+00   1.36510504e+00
C     2.313069478500000e+00   2.799068422570420e+00   3.603369900000000e+00 -1.44286842e+00  -1.19142618e+00  -9.59816200e-02
C     3.525383100500000e+00   3.489359297290267e+00   3.551578800000000e+00  1.66416843e+00   1.56089113e+00  -7.11178000e-03
C     4.787915723800000e+00   2.806110459123171e+00   3.528239100000000e+00 -1.02561233e+00  -7.59401640e-01  -4.48722120e-01
C     6.033158146900000e+00   3.402821037141126e+00   3.309495900000000e+00 -9.91868800e-02   3.95315139e+00   7.18356720e-01
C     7.247136975000000e+00   2.647004443091008e+00   3.329388600000000e+00  6.61439170e-01   5.16732323e+00   3.69385670e-01
C     8.492176035600000e+00   3.449073526697199e+00   3.497190300000000e+00 -3.81675529e+00  -5.49175000e-03  -5.78521140e-01
C     9.644241606600000e+00   2.733412910280853e+00   3.703474800000000e+00  3.05803872e+00   5.84863500e-02  -1.39632929e+00
C     1.087291351090000e+01   3.415513080758178e+00   3.674883600000000e+00  1.53443385e+00   3.25091462e+00  -1.90052780e-01
C     3.532808863700000e+00   4.905612250669530e+00   3.478507200000000e+00 -1.07356763e+00  -2.15724000e-01  -2.05498120e-01
C     4.749530102900000e+00   5.677688401525140e+00   3.465810900000000e+00  6.87255360e-01  -2.95593998e+00  -2.03029540e-01
C     6.015703925600000e+00   5.001176842626765e+00   3.342397200000000e+00 -4.47320000e-01  -3.56928174e+00   8.69854200e-02
C     7.242029199199999e+00   5.693122748357845e+00   3.332100000000000e+00  2.05070700e-02  -2.48547575e+00   4.78428770e-01
C     8.447692251199999e+00   4.863915493984747e+00   3.397053000000000e+00  3.32840870e-01   1.50086436e+00   1.39232470e-01
C     9.694649426900000e+00   5.588789788099118e+00   3.412891500000000e+00 -2.19895769e+00   1.24458485e+00   6.31299020e-01
C     1.085474463680000e+01   4.911287191644433e+00   3.547525200000000e+00  2.51418632e+00  -4.31285689e+00  -3.48258900e-01
C     1.209863964160000e+01   5.533628036568632e+00   3.371344200000000e+00  2.03296814e+00   2.31136633e+00   1.20641268e+00
C     4.777723786899999e+00   7.042375636857360e+00   3.550186500000000e+00 -1.76354411e+00   2.76279894e+00  -7.62237680e-01
C     5.985977406000000e+00   7.735386271805192e+00   3.422432400000000e+00  1.46213534e+00   2.43847568e+00   5.46327060e-01
C     7.234891002900000e+00   7.096070471777487e+00   3.420001500000000e+00  1.10166066e+00  -8.30578220e-01  -9.84449620e-01
C     8.511954998400000e+00   7.754276953909887e+00   3.364230000000000e+00 -3.16609130e-01  -1.44445150e-01   5.48884200e-01
C     9.743642140000000e+00   7.019573661002302e+00   3.425440200000000e+00 -1.05565178e+00   9.13357110e-01  -4.98337600e-01
C     1.096470887840000e+01   7.782523488237098e+00   3.448593900000000e+00 -1.54623958e+00  -1.54558107e+00  -9.38328500e-01
C     1.215472174400000e+01   6.970304082873332e+00   3.379732200000000e+00  2.80384590e-01   2.99845437e+00   7.20829460e-01
C     1.336774242660000e+01   7.803521939688675e+00   3.525852000000000e+00  8.61912680e-01  -4.51718022e+00  -3.37708430e-01
