64
Lattice="7.10842262195238 0 0 0 7.10842262195238 0 0 0 7.10842262195238 " PBC="1 1 1" Properties=species:S:1:pos:R:3:force:R:3 Energy="-513.06035202"
C     9.686576420047799e-03   7.037605243985155e+00   7.103655569622576e+00  5.08371200e-01   1.85486599e+00  -6.72065660e-01
C     1.784250970333398e+00   1.796855269902051e+00   7.102365319832820e+00 -7.42555440e-01  -2.51771340e-01   1.47883700e-02
C     1.295510022495000e-02   1.708020103988065e+00   1.761833493337835e+00 -2.40916470e-01   1.98484809e+00  -7.20258680e-01
C     1.807881002059480e+00   7.094836505099072e+00   1.798097253502217e+00 -1.11084300e+00   3.95674600e-01  -9.46129930e-01
C     9.199709181327809e-01   8.444298531184932e-01   8.469645033721066e-01 -7.07475270e-01   7.15508480e-01   1.27682359e+00
C     2.622726382160022e+00   2.704402442400727e+00   9.216902323118803e-01  8.79576990e-01  -1.58525289e+00   1.27083170e-01
C     8.523524744653880e-01   2.675962923014178e+00   2.632202762523196e+00  6.08828600e-01  -1.07003828e+00   1.08478265e+00
C     2.665391063641036e+00   8.891247711840052e-01   2.662807365271344e+00  2.27628750e-01  -3.96693480e-01   3.43740000e-04
C     3.586222811753098e+00   1.732109339815400e-03   1.667053055997160e-02 -1.68611859e+00   3.52274100e-01  -8.15510000e-03
C     5.305404774191766e+00   1.786107619237516e+00   7.041896030047039e+00  1.15014909e+00   7.22132390e-01   1.73129752e+00
C     3.530463136289973e+00   1.781272612339844e+00   1.796022447107891e+00  9.23581880e-01   4.92671600e-01  -3.44004110e-01
C     5.347866581291205e+00   3.000600247931780e-02   1.715081397766095e+00 -7.88954720e-01  -1.01610391e+00   1.30757428e+00
C     4.426367139042446e+00   9.374323317934536e-01   8.669255227628763e-01  7.25793140e-01  -9.05477860e-01  -8.83805100e-02
C     6.238167014492332e+00   2.675193578434016e+00   8.800513672991586e-01 -1.02601716e+00  -1.08522539e+00   1.33896440e-01
C     4.488196980917694e+00   2.653846487716572e+00   2.712664348759274e+00 -2.41340409e+00   7.03349120e-01  -1.99224246e+00
C     6.220305680975058e+00   8.445967588816108e-01   2.643717269819977e+00  4.28660840e-01   1.57112633e+00  -1.05004090e-01
C     2.625211557792200e-03   3.606463902995096e+00   3.578913078604500e-02 -5.12060060e-01  -2.11348614e+00  -1.25024131e+00
C     1.816252093789471e+00   5.366695300042835e+00   7.094567948892489e+00 -6.14456910e-01  -9.16848000e-01   1.37115958e+00
C     5.424437301321999e-03   5.337697840564843e+00   1.767742298556483e+00 -3.82227500e-01  -7.03805540e-01   1.56284990e-01
C     1.754173741459428e+00   3.585685557171479e+00   1.793092852893511e+00 -2.04267780e-01  -7.76671540e-01  -6.14893500e-02
C     8.906315435267667e-01   4.451077651006768e+00   9.056406224677656e-01  3.88086060e-01   1.31224516e+00  -9.37406620e-01
C     2.678317303670148e+00   6.221129547156716e+00   9.594742708220019e-01  1.21628071e+00  -7.21262140e-01  -2.34412646e+00
C     8.694193706706508e-01   6.218835659177242e+00   2.624566255186756e+00  1.32105381e+00  -1.56988550e-01   1.86510870e+00
C     2.670799222654558e+00   4.414616916451585e+00   2.688359087968518e+00  4.21336110e-01   8.96206870e-01  -3.19528470e-01
C     3.535493127220111e+00   3.538512642980634e+00   8.342487437367720e-02  6.47820000e-04   9.40386840e-01  -2.40851016e+00
C     5.319334652410597e+00   5.328508498307063e+00   1.698202163918000e-02 -3.66004180e-01  -4.54742800e-01  -1.90112340e-01
C     3.587360941298787e+00   5.284935786920571e+00   1.809302117909671e+00 -8.43542410e-01   1.38943323e+00  -3.93728990e-01
C     5.306772292535402e+00   3.541297794047377e+00   1.806686147301285e+00  2.00923933e+00  -1.50974290e-01  -7.85989810e-01
C     4.450519781999550e+00   4.406887359863051e+00   9.134327331753571e-01 -5.01505090e-01   9.78608390e-01   3.14178540e-01
C     6.215335685131833e+00   6.189884902035863e+00   8.676429047736866e-01  3.30920990e-01   7.20848820e-01   4.46405980e-01
C     4.472165497551261e+00   6.236119930946225e+00   2.644981431698718e+00 -4.83143290e-01  -5.60657990e-01  -5.01737800e-02
C     6.231457871970897e+00   4.435390783968953e+00   2.661025639141641e+00 -1.00224167e+00   5.64386270e-01   6.81065760e-01
C     7.101471791109486e+00   7.086538701206294e+00   3.531608089921376e+00  5.07969970e-01   4.85400490e-01   8.25141850e-01
C     1.784268030547686e+00   1.766334120035462e+00   3.512776598884925e+00 -1.35340823e+00   1.00251056e+00   8.18430190e-01
C     1.496202118325460e-02   1.696367835460909e+00   5.318610375229845e+00 -1.77245100e-01   2.97300941e+00   3.47472450e-01
C     1.815171897888136e+00   3.177280092151880e-02   5.346158569504071e+00 -1.32258819e+00  -1.26990390e+00  -1.78542791e+00
C     9.162039517337641e-01   8.960650796090421e-01   4.421453370822145e+00 -4.67011830e-01  -1.11383395e+00  -4.74314700e-01
C     2.607598237140138e+00   2.656692202544037e+00   4.411614816326481e+00  1.81078667e+00   6.93251990e-01   9.32173430e-01
C     8.877787202766820e-01   2.680628962706172e+00   6.211020375011910e+00 -3.96001000e-01   6.63413600e-02   3.51618860e-01
C     2.634835935514323e+00   9.022749976098742e-01   6.201288731192451e+00  2.14059964e+00   3.16457100e-02   1.31361487e+00
C     3.572241042049142e+00   7.107307024154017e+00   3.536299506682124e+00 -3.96982240e-01  -3.06911830e-01  -2.79311350e-01
C     5.349886723915583e+00   1.798357990443919e+00   3.527708693608949e+00 -7.47559300e-02  -2.11569968e+00   1.20866359e+00
C     3.508105867634002e+00   1.768778351153349e+00   5.315379170643697e+00  4.60885050e-01   1.08616012e+00  -5.39338940e-01
C     5.295759924212498e+00   1.094682866634760e-02   5.348818541248476e+00  1.18069355e+00  -3.10350810e-01  -1.62879048e+00
C     4.420062323599637e+00   8.875345459596850e-01   4.370977741313596e+00  8.03167760e-01   7.42954010e-01   2.94314604e+00
C     6.211419939447380e+00   2.625239422808870e+00   4.469876798720299e+00  1.78785920e-01   1.15159305e+00  -4.30995040e-01
C     4.373751589988373e+00   2.709515246454388e+00   6.237840524641395e+00  1.61151271e+00  -1.72244949e+00  -1.30040079e+00
C     6.240812129633460e+00   8.450268895343470e-01   6.198237938372399e+00 -1.20851168e+00   7.27506060e-01   7.02270050e-01
C     7.066133689738679e+00   3.551880316054449e+00   3.570684297495362e+00  1.84895891e+00  -2.30136360e-01  -2.12075960e-01
C     1.822397396228687e+00   5.340056273021706e+00   3.564970405224953e+00 -1.90660229e+00  -1.90700500e-02  -6.19598490e-01
C     7.107653133251384e+00   5.344529816629151e+00   5.378434291325956e+00  2.13644090e-01   1.65440070e-01  -1.87663280e+00
C     1.774910716263396e+00   3.608728362104923e+00   5.334507296156082e+00 -3.57147160e-01  -2.26034370e+00  -2.00377300e-01
C     9.100193397174594e-01   4.473708096344026e+00   4.442708620719337e+00 -1.40222451e+00  -3.94415260e-01   4.86244850e-01
C     2.688920369018593e+00   6.218246939615854e+00   4.443457066536998e+00 -5.98701600e-02   4.12152190e-01   2.13933790e-01
C     9.388337573129865e-01   6.232177102171589e+00   6.193676605745598e+00 -1.15830651e+00  -6.05082270e-01   1.15867748e+00
C     2.683167309339548e+00   4.438702455899159e+00   6.245015482097119e+00 -5.17959820e-01   3.38616660e-01   1.46626880e-01
C     3.549540934170207e+00   3.535040462867669e+00   3.548726166769503e+00  2.47320040e-01  -1.09190190e-01   1.12112967e+00
C     5.334691262133488e+00   5.354330056726893e+00   3.542011906183782e+00  3.67532140e-01  -1.81376550e-01   7.29515570e-01
C     3.527200583560071e+00   5.298057508571734e+00   5.336813481706689e+00  1.79129573e+00   1.46393465e+00   3.97917270e-01
C     5.319020389046567e+00   3.590990928393916e+00   5.328801009897877e+00 -5.74116180e-01  -1.50092372e+00   8.79376190e-01
C     4.431458546744021e+00   4.453673575863366e+00   4.452197725159002e+00  1.47207530e-01  -1.11227270e-01  -9.41497900e-01
C     6.220888642714124e+00   6.254447932408502e+00   4.464344100142474e+00 -2.53047680e-01  -1.47496230e+00  -3.78781270e-01
C     4.455923320538370e+00   6.227131757048592e+00   6.235613953424133e+00 -1.26630841e+00  -5.46746710e-01  -1.09063160e-01
C     6.171720252125394e+00   4.453276499375812e+00   6.252535624555269e+00  2.09024678e+00   2.07029740e-01  -6.75664440e-01
