64
Lattice="7.10842262195238 0 0 0 7.10842262195238 0 0 0 7.10842262195238 " PBC="1 1 1" Properties=species:S:1:pos:R:3:force:R:3 Energy="-513.82550497"
C     7.094419667196635e+00   7.098558048677547e+00   8.173548665380800e-03  1.11709180e+00   3.65861610e-01  -1.25479913e+00
C     1.787531009782944e+00   1.814098739325194e+00   7.100998370162993e+00 -1.17586245e+00  -2.10987365e+00   1.44514180e-01
C     7.092597067636868e+00   1.753350515035806e+00   1.771928306468949e+00  8.69399550e-01   9.47473320e-01  -4.11848900e-02
C     1.787752792568688e+00   7.100144648606331e+00   1.773271727259903e+00  5.12674140e-01  -1.35462900e-01  -3.76515020e-01
C     8.990313532841420e-01   8.659876374823934e-01   8.703468776541085e-01 -6.40928090e-01   7.31332020e-01   7.18751980e-01
C     2.671896763107086e+00   2.640584943392474e+00   8.909812779196706e-01  2.05225420e-01   1.21557520e+00  -5.64027030e-01
C     9.283201159211019e-01   2.673725191573402e+00   2.634152176342505e+00 -1.25138986e+00  -1.26029417e+00   6.38639060e-01
C     2.690800120296226e+00   8.950150945038420e-01   2.637634450415591e+00 -4.16357230e-01  -1.49458403e+00   1.11842513e+00
C     3.550267130625067e+00   2.386141088236360e-02   7.105911143204128e+00  7.18219890e-01  -7.30537500e-01  -2.61335400e-01
C     5.355927319289607e+00   1.769195189055785e+00   7.078986286509449e+00 -8.38350110e-01   8.12287370e-01   1.13041495e+00
C     3.547198566748465e+00   1.753504270217076e+00   1.756020865077235e+00  9.20781190e-01   7.66240230e-01   4.89290450e-01
C     5.347902336656984e+00   7.070992936357485e+00   1.763861597395547e+00 -4.31298410e-01   1.32191316e+00  -1.52512410e-01
C     4.465965602426323e+00   8.845048651548149e-01   8.590638205978347e-01 -3.68986200e-01  -1.75296820e-01   4.52033300e-01
C     6.193581423966716e+00   2.656680189309809e+00   9.401783865357859e-01  4.62571750e-01   1.41836230e-01  -1.97542728e+00
C     4.399381718587045e+00   2.656467149883888e+00   2.688896626887042e+00  7.55183140e-01   8.80106850e-01  -6.43605180e-01
C     6.192725854220172e+00   9.076793180751815e-01   2.645686871559527e+00  1.33074710e+00  -1.63744166e+00   2.15739990e-01
C     7.077756316143510e+00   3.535236015573946e+00   2.149814469811840e-02  2.57621660e-01   3.47597180e-01   4.14477200e-02
C     1.771279662904874e+00   5.353645657797039e+00   7.103100757237084e+00  6.88834000e-02  -4.27209590e-01  -1.53488990e-01
C     8.409263959460000e-04   5.293165349956198e+00   1.784069421219683e+00  1.24649831e+00   1.26105118e+00   3.04037140e-01
C     1.810237373073784e+00   3.549773095252977e+00   1.751634470731111e+00 -1.11366747e+00   1.01762210e-01   9.77291460e-01
C     8.748026502050029e-01   4.433801696092251e+00   8.983114833254146e-01  7.92176280e-01  -2.16807900e-02  -8.74317380e-01
C     2.691910029404112e+00   6.237273841190129e+00   8.604585642001049e-01 -1.13442555e+00  -4.85259590e-01   1.15748360e+00
C     9.466968811625520e-01   6.186101159759463e+00   2.679302246708376e+00 -2.17708479e+00   1.46901975e+00  -9.90659050e-01
C     2.638026835344215e+00   4.447973758269746e+00   2.684434385671563e+00  1.43346850e+00   2.43150100e-02  -2.27488850e-01
C     3.557701616590646e+00   3.549841833699712e+00   1.083963365323800e-02 -1.42679680e-01   1.88084640e-01   1.25718300e-02
C     5.340997925766178e+00   5.329252963408057e+00   3.212417025162540e-02 -4.74443750e-01   3.22624140e-01  -9.22947760e-01
C     3.533783764832680e+00   5.330862950047261e+00   1.788298292920547e+00  1.81544010e-01   2.46175520e-01  -6.25428490e-01
C     5.314289449456052e+00   3.573756060162142e+00   1.789198645729596e+00 -1.33750250e-01  -8.06247150e-01   6.51286990e-01
C     4.408776778595446e+00   4.463489241238193e+00   8.985034818203809e-01  1.12569696e+00  -8.82150490e-01   2.88285200e-01
C     6.255550377672638e+00   6.200892578799838e+00   8.953123687378103e-01 -9.32830570e-01  -1.79687100e-02   2.26017930e-01
C     4.451023982415988e+00   6.201172153061483e+00   2.632201127585994e+00 -4.38047010e-01   7.76982000e-02   1.39120079e+00
C     6.260111070541403e+00   4.452416238070341e+00   2.686849330088256e+00 -1.89967346e+00  -9.24704620e-01  -5.54792630e-01
C     3.065642314904780e-02   1.063547975559160e-02   3.524135573894780e+00 -7.06971140e-01  -4.24494450e-01   8.08788750e-01
C     1.809454095985287e+00   1.749784859165387e+00   3.525095708538063e+00 -4.06529500e-01   2.42028602e+00   3.41350110e-01
C     7.092692889173785e+00   1.814789251498501e+00   5.305865897567126e+00 -1.40497300e-02  -1.17140125e+00  -1.89054400e-01
C     1.775490123791152e+00   3.172098052061900e-02   5.310528169795131e+00 -6.13472550e-01   5.04200900e-02   9.56358520e-01
C     9.070829214173636e-01   9.339669046819773e-01   4.407033651200569e+00 -5.94798920e-01  -1.18031724e+00   3.11245990e-01
C     2.630771837049790e+00   2.701878739117948e+00   4.471274954365427e+00  1.83094422e+00  -1.79138916e+00  -2.69425890e-01
C     8.399777058631348e-01   2.648251448272370e+00   6.233448870062534e+00  1.11671466e+00   1.25796429e+00   8.16574500e-02
C     2.651244165279616e+00   8.900671347707386e-01   6.228288794998449e+00  8.61487850e-01   7.06964370e-01  -6.31039410e-01
C     3.559481636698920e+00   7.075291683852703e+00   3.574595067283981e+00  4.49725810e-01   8.49625250e-01  -9.96602470e-01
C     5.305121858971490e+00   1.762648687243896e+00   3.525870384435191e+00  2.53029010e-01   4.96353070e-01   2.94975760e-01
C     3.578800410105972e+00   1.758971286969892e+00   5.344733117516083e+00 -9.02749410e-01   9.58895450e-01  -5.67884190e-01
C     5.342440153631549e+00   1.687866517428520e-02   5.318338762401535e+00  7.88762390e-01  -1.27450570e+00   6.92372900e-02
C     4.489035419365723e+00   8.670789225230158e-01   4.417293521904920e+00 -2.03638809e+00   3.59498220e-01   8.60703910e-01
C     6.158188232320605e+00   2.675952189296022e+00   4.397373091607311e+00  1.64232702e+00  -8.71025000e-03   1.15122372e+00
C     4.439324727215313e+00   2.688165667789027e+00   6.230912655955944e+00  4.54108460e-01  -9.22858010e-01  -6.09330790e-01
C     6.229198530925356e+00   8.947986430350631e-01   6.192942447857404e+00 -1.05040600e-02  -1.32006600e-02   4.60311480e-01
C     5.259308643859400e-03   3.528903406198693e+00   3.549121252898722e+00  2.49439000e-01   4.63629700e-01  -1.88466030e-01
C     1.760379038985556e+00   5.323785804486789e+00   3.565533250128005e+00  9.54064190e-01  -4.43017540e-01   1.14537958e+00
C     7.096925315085960e+00   5.301905368820166e+00   5.325782204979616e+00  5.42211000e-01   8.54709890e-01   2.65392400e-01
C     1.761629055103284e+00   3.547181506534177e+00   5.385596737957868e+00 -2.23035740e-01   1.57541380e-01  -1.38967990e+00
C     8.890145906333952e-01   4.408108729037618e+00   4.455487005557955e+00 -4.85652630e-01   5.70870980e-01   2.60388290e-01
C     2.659330564683676e+00   6.231050275017867e+00   4.511023903056169e+00  7.65600200e-02  -2.55660840e-01  -2.45821789e+00
C     8.830928480855780e-01   6.251659795804259e+00   6.187609709207880e+00 -2.15238100e-01  -1.19676420e+00   7.61566240e-01
C     2.672192473488078e+00   4.435249397443041e+00   6.228879789255076e+00 -7.32206460e-01   4.36288250e-01   8.12400660e-01
C     3.564542336014777e+00   3.592096501364005e+00   3.611055090996901e+00 -1.74676657e+00  -1.09059752e+00  -1.38324649e+00
C     5.323081430889372e+00   5.327991715982590e+00   3.540253140259142e+00  8.88350210e-01   3.08039520e-01   5.61150880e-01
C     3.535850112204088e+00   5.362072124139239e+00   5.374233640062893e+00  9.26080080e-01  -8.22204100e-01  -5.36714760e-01
C     5.301347144391818e+00   3.586143410672433e+00   5.319212529709985e+00  4.19760920e-01  -5.50715100e-01   5.27250060e-01
C     4.427668691224168e+00   4.479258779231079e+00   4.462236808256775e+00  1.64359890e-01   6.17315200e-02  -2.41473760e-01
C     6.245069435024805e+00   6.196804311698398e+00   4.436091532270832e+00 -6.99235180e-01   1.06228807e+00  -3.81684910e-01
C     4.468997700094883e+00   6.229404248675980e+00   6.229370910173892e+00 -7.60240430e-01   4.58410350e-01   1.59689140e-01
C     6.205520801683494e+00   4.444023110230228e+00   6.238076524272380e+00  1.09030150e-01  -4.35056080e-01  -3.03325950e-01
