64
Lattice="7.10842262195238 0 0 0 7.10842262195238 0 0 0 7.10842262195238 " PBC="1 1 1" Properties=species:S:1:pos:R:3:force:R:3 Energy="-512.47742573"
C     3.014646491028900e-02   7.085769143373453e+00   4.174861905797440e-02 -6.43560780e-01   7.11682820e-01  -1.11452398e+00
C     1.782242414437891e+00   1.804089511602425e+00   3.797248279377800e-03  4.78665070e-01  -8.85125700e-01   6.94169030e-01
C     7.074215042162678e+00   1.761084407762139e+00   1.783378411456793e+00  1.40733045e+00   8.26895110e-01   6.31545710e-01
C     1.770029078113338e+00   7.103901165624096e+00   1.793811443336167e+00 -3.23339200e-02   1.28179939e+00   1.71905380e-01
C     9.019239837008987e-01   8.935045546970919e-01   9.049668861718421e-01 -5.96315730e-01   1.81632460e-01  -1.90657850e-01
C     2.704748480413868e+00   2.669539610166294e+00   9.284103928883758e-01 -1.18305788e+00   5.30539690e-01  -2.03438155e+00
C     9.305584871199135e-01   2.694375088200276e+00   2.644716145366540e+00 -1.48832278e+00  -1.04195164e+00  -6.80953340e-01
C     2.680651496405877e+00   9.201365443798268e-01   2.680642610877602e+00 -6.92280770e-01  -1.83181420e+00   3.08679670e-01
C     3.560588631353533e+00   7.086123782577965e+00   3.405872746765840e-02 -9.40297370e-01   6.15399140e-01  -1.80406730e-01
C     5.312775639774896e+00   1.790558913482159e+00   2.978869799982440e-02  1.56964785e+00  -1.14913628e+00  -6.36342980e-01
C     3.555419244255817e+00   1.802228668728961e+00   1.803440441532993e+00 -3.24228000e-03  -1.37851145e+00  -6.90208460e-01
C     5.304313062645787e+00   7.072902116504764e+00   1.765976424209223e+00  2.26106630e-01   2.38047827e+00   6.29759210e-01
C     4.440276900425261e+00   9.039940274520687e-01   8.940281611072811e-01 -2.04930750e-01  -1.02552767e+00   1.64760360e-01
C     6.177825391976808e+00   2.656550389512768e+00   9.694975732215593e-01  1.61049124e+00   6.78190020e-01  -3.30868088e+00
C     4.428667495686504e+00   2.666365415129559e+00   2.634637539438998e+00  2.03734580e-01   1.29632270e+00   1.46607206e+00
C     6.187266443479560e+00   9.362185686310884e-01   2.669701184612447e+00  3.66189710e-01  -2.67748935e+00   6.03695030e-01
C     3.175026722181339e-02   3.549078673447229e+00   2.899099081340800e-02 -1.40395418e+00   3.64135890e-01  -1.75856327e+00
C     1.794734472013374e+00   5.372484541593016e+00   5.689297128143199e-03  1.53715170e-01  -1.51408286e+00  -1.11882086e+00
C     7.108194297465445e+00   5.364168895559461e+00   1.751438136098347e+00 -6.99878470e-01  -1.67157832e+00   9.01600100e-02
C     1.783830578219651e+00   3.598002107792474e+00   1.695907209675133e+00  2.28034080e-01  -1.29069021e+00   2.55344032e+00
C     9.081543028746499e-01   4.468380760095694e+00   7.923352803582397e-01 -1.52517230e-01   9.41456500e-02   3.60738809e+00
C     2.649195162459401e+00   6.210330502596638e+00   9.288519681015303e-01  7.11609140e-01   7.16374500e-02  -4.15345640e-01
C     8.219952448244160e-01   6.240345532772683e+00   2.656910644371149e+00  2.46301433e+00   6.03210300e-02   7.56172600e-02
C     2.671334842298975e+00   4.395389486275200e+00   2.665146178481776e+00 -2.56757040e-01   2.28481095e+00  -1.11922808e+00
C     3.593114925072771e+00   3.541705746421539e+00   1.697768550138180e-02 -1.05277485e+00   2.69987540e-01  -7.90698740e-01
C     5.324617276680650e+00   5.324440419125865e+00   4.698454099141399e-03  8.48988870e-01   1.26352049e+00  -7.94454800e-01
C     3.553322046330238e+00   5.294033857031909e+00   1.779731008726245e+00 -2.59901250e-01   7.24537730e-01  -3.75263620e-01
C     5.304583253789573e+00   3.586014819307237e+00   1.753294571749786e+00  7.49710930e-01  -9.88871520e-01   1.10937099e+00
C     4.469049520495783e+00   4.466437957109422e+00   8.525212284183868e-01 -1.02354220e+00  -1.17492214e+00   1.19610763e+00
C     6.204692741532490e+00   6.233038074319324e+00   8.966249389745934e-01  7.07881800e-02  -4.72159700e-01  -2.09749760e-01
C     4.405661654550684e+00   6.210876855959212e+00   2.638296955403774e+00  2.88293030e-01   8.23801600e-02   1.00733273e+00
C     6.208675590726476e+00   4.420621543207153e+00   2.637354876153946e+00  3.50334590e-01   1.40688221e+00   1.69044420e-01
C     7.105548542566281e+00   7.106954517476291e+00   3.592709602814979e+00 -1.36075571e+00   1.25231131e+00  -1.05331330e+00
C     1.803651348432128e+00   1.798930929307091e+00   3.535577077691253e+00 -5.18907180e-01   5.98040900e-02   4.58917670e-01
C     8.707888793726200e-03   1.791918328224009e+00   5.336907028548367e+00  4.46587100e-01  -5.19363880e-01   3.72223400e-02
C     1.759694995476834e+00   7.094115711045404e+00   5.267617607975692e+00 -2.91479970e-01   6.65893380e-01   3.99404452e+00
C     8.725413898853548e-01   9.112277004786331e-01   4.440100682628512e+00  1.12630145e+00  -2.97353110e-01  -6.33167700e-01
C     2.713373484999845e+00   2.658499021405588e+00   4.432723348380797e+00 -9.80199130e-01  -2.65592710e-01   1.08796453e+00
C     9.303172983404170e-01   2.682256364980795e+00   6.198112687965835e+00 -1.06258745e+00  -2.40153950e-01   8.65766430e-01
C     2.659453682563454e+00   8.823975732691158e-01   6.289394857282529e+00  9.29382400e-02  -6.32570030e-01  -2.69820731e+00
C     3.526347999351029e+00   7.070549512954449e+00   3.604740110509745e+00  4.38916460e-01   1.24447528e+00  -2.03724532e+00
C     5.286136257332638e+00   1.793286201988775e+00   3.532379780281004e+00  1.23268926e+00  -1.33142540e-01   1.05756625e+00
C     3.559097995130119e+00   1.725245518017754e+00   5.352995734716893e+00 -1.48838260e-01   1.18622002e+00  -1.15751100e-01
C     5.290807557257370e+00   7.076761989987425e+00   5.306386376271362e+00  1.85665139e+00   8.76618610e-01   1.93069490e+00
C     4.424659411592217e+00   8.620544761625212e-01   4.439049346923015e+00  2.22627530e-01   2.14067260e-01   3.90618970e-01
C     6.230331684575211e+00   2.698083836618034e+00   4.466277022421306e+00 -7.61585490e-01  -1.67165636e+00  -6.43678550e-01
C     4.443427068993541e+00   2.642054609769159e+00   6.219193781508838e+00  1.65123480e-01  -8.97817700e-02   6.14205490e-01
C     6.303087811775435e+00   8.464492849006090e-01   6.230476838565111e+00 -3.31133775e+00   1.58611561e+00   1.34402860e-01
C     1.613498199978080e-02   3.521724183689397e+00   3.524802201768083e+00 -6.56411380e-01   1.66091959e+00   3.42357560e-01
C     1.784735196082272e+00   5.368607678980294e+00   3.478075412180871e+00 -9.67474380e-01  -1.98627504e+00   2.09886372e+00
C     2.848984701869800e-03   5.316612908473625e+00   5.335014482110019e+00 -4.94343300e-02   4.39636600e-01  -4.28122330e-01
C     1.823108807164497e+00   3.556098098616026e+00   5.322822399969100e+00 -9.30890230e-01   2.82005050e-01  -6.98923620e-01
C     8.888916149220693e-01   4.443041650319085e+00   4.360883212519386e+00  6.19668580e-01   2.86738360e-01   2.20986211e+00
C     2.637822468193889e+00   6.189725957706080e+00   4.475471909248728e+00  5.87266170e-01   4.85036890e-01  -1.92813164e+00
C     8.787600512460093e-01   6.197896520833961e+00   6.266415601647307e+00  8.36682920e-01   8.91664890e-01  -2.48830999e+00
C     2.679882365078393e+00   4.434892910048648e+00   6.230772691114556e+00  4.66041700e-01   2.75330030e-01  -3.25949120e-01
C     3.563718967422702e+00   3.558311021661858e+00   3.564581290170735e+00 -4.87654800e-02  -8.30204190e-01  -8.24408060e-01
C     5.297682326025851e+00   5.364047483701111e+00   3.502187750381720e+00  1.92572028e+00  -1.73894511e+00   1.67259638e+00
C     3.565912271222104e+00   5.315726274920232e+00   5.329186997246143e+00 -8.91029740e-01  -5.69828280e-01   1.89182980e-01
C     5.314437517899226e+00   3.520490801280601e+00   5.374468999935841e+00  1.39967897e+00   2.17009555e+00  -1.92771515e+00
C     4.459150402239398e+00   4.436407359487839e+00   4.404754406571693e+00 -4.75132710e-01   3.77021400e-01   1.40241748e+00
C     6.211487753799174e+00   6.235475481351495e+00   4.479394479018896e+00 -2.87708830e-01  -9.53074420e-01  -1.79831090e+00
C     4.411576786265464e+00   6.187652075406695e+00   6.230644597338943e+00  9.42696560e-01   1.08221612e+00  -3.24351500e-01
C     6.233211733083930e+00   4.493026798666853e+00   6.224344971044647e+00 -6.93653810e-01  -3.14327464e+00   4.06098490e-01
