64
Lattice="7.10842262195238 0 0 0 7.10842262195238 0 0 0 7.10842262195238 " PBC="1 1 1" Properties=species:S:1:pos:R:3:force:R:3 Energy="-510.67867232"
C     7.411980699564480e-02   7.101393385207987e+00   7.056376384513563e+00 -1.87364086e+00   8.88580590e-01   1.75685255e+00
C     1.872816869198538e+00   1.766426316276843e+00   3.380374834827900e-02 -3.04367437e+00  -1.87859470e-01  -9.35702510e-01
C     7.092543399046086e+00   1.755964424201632e+00   1.731209413511708e+00  8.13805290e-01   7.09794110e-01   8.46736020e-01
C     1.748439021510743e+00   7.097263818171125e+00   1.893644618559364e+00  7.20036500e-02  -2.34468230e-01  -4.47411132e+00
C     9.326898765582945e-01   8.533054296018252e-01   9.058171246014202e-01 -9.74323200e-01   1.01769394e+00  -4.10790500e-02
C     2.693994147832070e+00   2.675040534095007e+00   8.979141225009565e-01 -5.51240030e-01   1.76936140e-01   7.32591900e-01
C     9.163961634814090e-01   2.661194108757735e+00   2.647235939016877e+00 -2.18795635e+00  -6.99782640e-01   7.92286490e-01
C     2.666311533286099e+00   8.672714186075654e-01   2.638943182104159e+00 -2.45535500e-02   8.93859220e-01   2.12502938e+00
C     3.479831476904915e+00   7.086200411373809e+00   7.086730059943225e+00  2.14103806e+00   1.13394100e-01   1.07835501e+00
C     5.277369866220749e+00   1.727533577090680e+00   7.068556453420253e+00  6.69274530e-01   1.25614235e+00   6.88856340e-01
C     3.551633156199952e+00   1.748508755136645e+00   1.795063236559549e+00  6.42029890e-01   9.84515810e-01  -1.43629152e+00
C     5.407305149797086e+00   4.874330691605440e-02   1.755218963921472e+00 -2.82805024e+00  -1.74166415e+00  -2.61884590e-01
C     4.431062536519861e+00   8.723641058252120e-01   8.967684580272912e-01 -3.06854660e-01  -1.11294400e-01  -1.17264263e+00
C     6.195457123443455e+00   2.588599271666759e+00   8.188850255912612e-01  2.77242120e-01   2.45423985e+00   8.40796300e-01
C     4.456064849232734e+00   2.637298008772986e+00   2.631399795104041e+00 -3.48933700e-01   1.20838861e+00   1.51416157e+00
C     6.181056098973371e+00   9.221706195125398e-01   2.671654152643065e+00  3.19214215e+00  -6.55092640e-01  -4.09915990e-01
C     7.095816756578371e+00   3.536153855102640e+00   7.063194214816857e+00  9.93413870e-01   6.97830000e-02   1.79293678e+00
C     1.781154896861257e+00   5.306352824516596e+00   1.430498257206538e-01 -9.80675610e-01   1.58206345e+00  -4.40038392e+00
C     7.065551225589196e+00   5.271689170283975e+00   1.783519655814252e+00  5.66300280e-01   2.22297944e+00  -6.63050230e-01
C     1.776560865490403e+00   3.574808604299486e+00   1.823091746950209e+00 -7.37598870e-01  -1.67545487e+00  -2.06816383e+00
C     8.408731538605762e-01   4.437907805334468e+00   9.169016434139171e-01  1.18546136e+00  -1.06058390e+00   2.36969840e-01
C     2.625021762908246e+00   6.253396809955682e+00   9.260850145966951e-01  1.49597219e+00  -1.92461402e+00   1.39619039e+00
C     8.315822322435577e-01   6.205859660189789e+00   2.704283944995651e+00  1.05876311e+00   2.77268190e-01  -1.42664570e+00
C     2.646090203458985e+00   4.406200757322184e+00   2.667301167883255e+00  2.01927569e+00   2.45740109e+00  -7.81553000e-02
C     3.485476986149719e+00   3.616379441707734e+00   2.145748452073200e-03  2.69704727e+00  -9.44430980e-01   1.29799422e+00
C     5.356820705844489e+00   5.399329499617445e+00   2.168921909814400e-02 -2.17391145e+00  -2.19657136e+00  -1.32749738e+00
C     3.633525241404079e+00   5.309752214381932e+00   1.838554983012400e+00 -2.94200004e+00   2.48842384e+00  -8.90299000e-01
C     5.314521255117691e+00   3.572014425536016e+00   1.767298022142733e+00  4.15262580e-01  -2.51228151e+00  -1.10931138e+00
C     4.456602317067032e+00   4.513260141728195e+00   9.599509616428992e-01  1.02424170e-01  -1.92939369e+00  -3.08760694e+00
C     6.214006552270345e+00   6.239124803356151e+00   8.040385162755816e-01  2.31958060e+00   9.78830650e-01   3.52593918e+00
C     4.502772232826194e+00   6.256542713470389e+00   2.669658960582083e+00 -4.37394850e-01  -1.33133984e+00  -3.28597190e-01
C     6.208103504874019e+00   4.384155192998100e+00   2.625010531600506e+00 -3.27494460e-01   1.28470165e+00   2.15708755e+00
C     3.541451691397100e-02   4.345570675016740e-02   3.557344702690896e+00 -2.38058335e+00  -8.25896470e-01   7.92505300e-01
C     1.804565989170644e+00   1.793271629722404e+00   3.539359966956939e+00 -8.20281630e-01  -3.28767100e-02   1.84299000e-02
C     3.070326765411360e-02   1.787502576092465e+00   5.365018067725646e+00  4.04724000e-01   4.07814300e-01  -7.64967000e-01
C     1.807277212642137e+00   7.062130581540226e+00   5.263357317046847e+00 -1.59324934e+00   9.73711690e-01   1.71691458e+00
C     8.917796959483490e-01   9.140078045653152e-01   4.465910014561434e+00  1.03896869e+00  -4.13774500e-01  -1.45506467e+00
C     2.687367747349932e+00   2.707500221894296e+00   4.360272101426745e+00 -1.22594540e-01  -1.00448952e+00   2.94535975e+00
C     9.957749236997822e-01   2.686699129118295e+00   6.232997271973485e+00 -2.54988495e+00  -5.21138130e-01  -1.54577720e-01
C     2.632837047073579e+00   8.396326630291600e-01   6.184891377313765e+00  1.31300557e+00   1.12418531e+00   3.24619590e-01
C     3.547362202637177e+00   7.090678291119051e+00   3.500948396897923e+00  1.12102086e+00   6.27400560e-01   1.15930710e+00
C     5.322658764080387e+00   1.754144454758233e+00   3.568274826564086e+00 -4.19687060e-01   1.28416291e+00   1.86108430e-01
C     3.492384311493800e+00   1.747046908024842e+00   5.325719508692107e+00  1.66091757e+00   1.57577619e+00  -1.03582021e+00
C     5.329078025127378e+00   7.106675156467325e+00   5.313966158395295e+00  4.16845990e-01  -6.77672200e-02   3.32266920e-01
C     4.438404115401797e+00   8.726285391466760e-01   4.435764331577633e+00 -9.03913540e-01   2.17307040e-01   2.29477220e-01
C     6.191113806138409e+00   2.666903309469214e+00   4.497715514227005e+00 -2.21817090e-01  -8.46508140e-01   1.42814900e-02
C     4.345869442019458e+00   2.712237772317848e+00   6.239973406848526e+00  1.20330356e+00  -2.56007180e+00   3.03819450e-01
C     6.269550913612311e+00   8.778279237878488e-01   6.188879060235133e+00 -1.75094172e+00   2.87976180e-01   6.31904590e-01
C     7.029541520449253e+00   3.506026796186104e+00   3.586019937371524e+00  2.48335750e+00   1.08315396e+00  -1.23730983e+00
C     1.772926826594381e+00   5.344891066666699e+00   3.485605719683368e+00 -1.32133622e+00  -2.18693306e+00   2.08385013e+00
C     2.544744213733800e-02   5.319255038077253e+00   5.352948961296053e+00 -1.12323179e+00   8.25929100e-01  -8.30699850e-01
C     1.825139541338578e+00   3.611620566016323e+00   5.345163461421498e+00 -1.58592418e+00  -1.57789463e+00  -1.86322056e+00
C     8.428259797227425e-01   4.426698249368085e+00   4.411936970039619e+00  1.45257352e+00   6.01747000e-01   1.38264816e+00
C     2.656805297547921e+00   6.179441989449048e+00   4.347725806586672e+00  6.18329290e-01   1.37319221e+00   1.49212433e+00
C     9.031174878587966e-01   6.242665153242042e+00   6.238067283322973e+00  1.39118420e+00  -2.64028886e+00  -1.36994227e+00
C     2.647809162216954e+00   4.476696406129249e+00   6.237144254645766e+00  2.12577580e-01   1.14310153e+00   2.02184300e-02
C     3.591651869529124e+00   3.587618337281857e+00   3.523683620384600e+00 -4.05463980e-01  -1.56063429e+00   1.14037523e+00
C     5.384265259316916e+00   5.350919577722269e+00   3.539606700306079e+00 -8.46366030e-01  -8.13540690e-01   1.06979257e+00
C     3.552896038562622e+00   5.370636067374910e+00   5.267620095923609e+00 -6.17609100e-02  -1.33545795e+00   2.35218698e+00
C     5.269356754653901e+00   3.538887114684256e+00   5.442522407983351e+00  1.51730488e+00   1.49541612e+00  -3.16245941e+00
C     4.465806444843861e+00   4.447976957059924e+00   4.500339872774083e+00 -3.52680970e-01   2.54725350e-01  -2.48898620e+00
C     6.227269376110515e+00   6.231789550970347e+00   4.442760796541369e+00  9.41532870e-01  -1.49389180e-01   7.53987000e-02
C     4.426592333871048e+00   6.221023560575452e+00   6.218865798889150e+00 -1.72404550e-01   7.12776960e-01  -5.56564970e-01
C     6.214359201116523e+00   4.475674641461850e+00   6.244125294332416e+00 -7.63188500e-02  -1.27989208e+00  -5.81314200e-02
