64
Lattice="7.10842262195238 0 0 0 7.10842262195238 0 0 0 7.10842262195238 " PBC="1 1 1" Properties=species:S:1:pos:R:3:force:R:3 Energy="-513.94085782"
C     7.104905798992981e+00   2.318198784834400e-03   7.091705387103415e+00  5.06019270e-01  -2.66594020e-01   7.25392880e-01
C     1.772684145046134e+00   1.758417256510889e+00   7.107451751638560e+00  5.14520000e-01   9.50568690e-01   7.23930000e-03
C     2.403016483536240e-02   1.767484120646925e+00   1.770389901645529e+00 -1.17227345e+00   3.68812630e-01  -9.93837900e-02
C     1.773459460701297e+00   1.048734022819080e-02   1.780180474288507e+00 -2.47480500e-02  -5.44092730e-01   3.08929620e-01
C     8.923212866677669e-01   8.916385226751158e-01   8.956166803101726e-01  1.31843090e-01  -3.89872120e-01  -6.90188840e-01
C     2.638057117224576e+00   2.692661460759272e+00   8.936204219857979e-01  8.91765480e-01  -1.19934524e+00   2.47040020e-01
C     8.427721689635091e-01   2.659069614489296e+00   2.686248312955735e+00  1.51324582e+00   2.79824570e-01  -1.33591090e-01
C     2.656161985300811e+00   9.121653725064374e-01   2.683260500760096e+00  2.50374220e-01  -9.07621200e-02  -8.17792350e-01
C     3.553865271986858e+00   7.100573286490317e+00   7.101794229159529e+00 -1.89959910e-01   6.39802500e-02   3.06235570e-01
C     5.322272350226765e+00   1.774395284539220e+00   7.102278881413760e+00 -2.52821430e-01   2.25340200e-02  -1.16306230e-01
C     3.553817147965721e+00   1.792976416930995e+00   1.802592691051331e+00 -4.48030000e-03   1.24956600e-01  -9.89016610e-01
C     5.331831685881914e+00   2.056203652329060e-02   1.782356078115584e+00  5.67736040e-01  -7.60127540e-01  -5.74219940e-01
C     4.428400929838254e+00   8.965749667635748e-01   8.961618963251267e-01  1.61441200e-01  -1.01214170e-01   1.03853830e-01
C     6.218726615974251e+00   2.676565219662771e+00   8.340219139709678e-01  5.99153810e-01  -7.39516050e-01   1.63076930e+00
C     4.488918201476719e+00   2.688240092973859e+00   2.668614164625396e+00 -1.10751294e+00  -1.74625211e+00  -2.44642850e-01
C     6.251604136855144e+00   8.696406558668114e-01   2.665716771565484e+00 -1.50177274e+00   1.58725994e+00  -1.53475960e-01
C     1.524273279251840e-02   3.579765094139733e+00   7.082959681501350e+00 -4.88452430e-01  -1.01555962e+00   7.77942560e-01
C     1.765315554158242e+00   5.303951243934429e+00   7.098879775885329e+00  4.40139780e-01   7.92339120e-01   1.69287946e+00
C     7.074820111096093e+00   5.334452063712325e+00   1.765184830266260e+00  7.75958670e-01  -1.21785600e-02   5.78422200e-02
C     1.760700552940659e+00   3.533162986285275e+00   1.807277070473685e+00  2.57857900e-02   8.55865690e-01  -7.35873010e-01
C     8.945973325064647e-01   4.433926022403876e+00   9.142840378683283e-01 -8.53181330e-01   1.39885230e-01  -8.11790510e-01
C     2.657437307403065e+00   6.184579388644973e+00   9.195006248922416e-01  4.19363820e-01   1.20210277e+00  -1.27125805e+00
C     8.632442128564306e-01   6.236475423161451e+00   2.656830105942865e+00  1.72706190e-01  -9.60358290e-01   5.13014660e-01
C     2.689421583897529e+00   4.436168942993164e+00   2.656118695007055e+00 -1.05279585e+00  -4.34631980e-01   4.26788900e-01
C     3.535847695340397e+00   3.581158060636348e+00   5.484929977818200e-03  4.14796560e-01  -8.84114130e-01   3.15702100e-02
C     5.314279995253967e+00   5.334095078728349e+00   7.081676824471119e+00  6.33016580e-01  -3.60111550e-01   1.10254186e+00
C     3.568362260162313e+00   5.316879047816518e+00   1.785655523558884e+00  5.65862530e-01   4.46057470e-01   5.22905500e-02
C     5.338477705610483e+00   3.524170334081392e+00   1.761939266666420e+00  2.55340850e-01   9.89824480e-01  -3.74231420e-01
C     4.479560673939751e+00   4.423406481021216e+00   8.926257404085814e-01 -1.77466527e+00   7.95281840e-01  -4.38163030e-01
C     6.219111679227577e+00   6.224833390762867e+00   8.576309758503213e-01 -4.00027640e-01   5.93831600e-02   4.86616850e-01
C     4.495964567567246e+00   6.235668972615212e+00   2.680601666363311e+00 -1.65590817e+00  -3.98904490e-01  -3.38716790e-01
C     6.174270540908771e+00   4.431332727663647e+00   2.643314790931233e+00  1.87893554e+00   2.49549610e-01   7.95351610e-01
C     7.062610328982850e+00   6.294366061557600e-03   3.553933655012463e+00  2.63760420e+00  -3.79494550e-01   2.45904140e-01
C     1.768693547671492e+00   1.791155381224204e+00   3.580829438258626e+00 -5.76032160e-01  -1.09559863e+00  -4.98322430e-01
C     4.121776205671280e-02   1.749380034497178e+00   5.332968251574625e+00 -1.34917831e+00   9.57806030e-01   8.07818680e-01
C     1.786092549381561e+00   7.095371627153906e+00   5.354625624939432e+00  2.68123490e-01  -6.04531040e-01  -1.77362867e+00
C     8.963901477754549e-01   8.580926678994903e-01   4.471311633826145e+00 -2.73798640e-01   6.61627070e-01  -8.35127270e-01
C     2.668768204143571e+00   2.654745489925324e+00   4.421904826742741e+00 -4.19709230e-01   1.49845017e+00  -1.73273160e-01
C     9.083305206713997e-01   2.665614694616661e+00   6.224426149230967e+00 -1.15676990e-01  -1.54585000e-02  -6.52702170e-01
C     2.667509302497570e+00   8.856972319650936e-01   6.181735166586259e+00 -9.64618000e-02   1.20179330e-01   1.62495670e+00
C     3.569019931423115e+00   4.118584523914900e-02   3.525080780850562e+00 -1.90585300e-01  -1.24863287e+00   9.92526770e-01
C     5.362661199121759e+00   1.785013135406714e+00   3.584980899237158e+00 -6.23825170e-01  -1.50071670e-01  -5.47604010e-01
C     3.522782769985968e+00   1.816478141628787e+00   5.302143145556805e+00  1.02778727e+00  -1.44446236e+00   1.10408250e+00
C     5.325820163956406e+00   1.182130681706000e-03   5.352606406409995e+00 -4.32512920e-01   4.50302260e-01  -9.61792520e-01
C     4.416924452602490e+00   9.187290056168407e-01   4.461660812771878e+00  1.06618980e+00  -5.83499410e-01  -7.57064340e-01
C     6.231775973883143e+00   2.648921914693889e+00   4.494045506712525e+00  4.57216230e-01   6.21555790e-01  -1.56551377e+00
C     4.419216563476309e+00   2.651198387037944e+00   6.221796175030020e+00  1.52117560e-01   1.14085669e+00  -3.82724500e-02
C     6.209257201865245e+00   8.869248565515676e-01   6.219828919069935e+00  6.84933760e-01  -9.74607100e-02   2.09715800e-02
C     7.084772897943260e+00   3.567082601922260e+00   3.545611540314324e+00  2.34114070e-01  -4.41084450e-01   8.88324470e-01
C     1.774696752742534e+00   5.308419811646039e+00   3.566675076053456e+00  5.08155000e-03   1.22638493e+00  -1.40453707e+00
C     7.097586824894977e+00   5.351067646165443e+00   5.353444134015762e+00  6.33966450e-01  -3.26791140e-01  -8.73723080e-01
C     1.794716629872597e+00   3.573115164778723e+00   5.307995652068304e+00 -4.74090670e-01  -6.93820570e-01   9.43053280e-01
C     8.923197938990166e-01   4.459864727628482e+00   4.459572926879931e+00 -6.94556280e-01  -4.73167880e-01  -7.46718170e-01
C     2.674725702057167e+00   6.215923338429828e+00   4.373772559835102e+00  1.16741840e-01   2.23329210e-01   2.31571865e+00
C     9.239583167172435e-01   6.192178008088849e+00   6.227616338218597e+00 -1.58026315e+00   1.06562703e+00   1.37870990e-01
C     2.647460636255895e+00   4.467747115303347e+00   6.232849487867215e+00  9.26661890e-01  -9.86627210e-01  -1.12996500e+00
C     3.557742987610295e+00   3.525587113793784e+00   3.499795126412054e+00  7.03117660e-01   1.11423061e+00   2.13325091e+00
C     5.360475145913430e+00   5.307081366750920e+00   3.579392968215577e+00 -1.34776035e+00   1.12753000e+00  -5.53172980e-01
C     3.545736648552436e+00   5.315202881762722e+00   5.311521358603597e+00  2.94087940e-01   9.24782310e-01   1.75583310e-01
C     5.352739120660311e+00   3.556233158645806e+00   5.347093611415507e+00 -1.30665794e+00  -9.96585830e-01  -1.37005800e-02
C     4.446086614232588e+00   4.422991775645565e+00   4.460031775560052e+00  3.81577000e-02   6.80980000e-03  -8.33581800e-01
C     6.227976308740073e+00   6.253886793526878e+00   4.439937828666288e+00 -6.23406580e-01  -1.54398710e+00   8.21773050e-01
C     4.445246967352714e+00   6.214918491808265e+00   6.214902284604691e+00 -6.90420280e-01  -7.42013200e-02  -2.12581560e-01
C     6.194151377292387e+00   4.437598588950499e+00   6.218727255732287e+00  1.32222224e+00   9.87870260e-01  -9.12131400e-02
