64
Lattice="7.10842262195238 0 0 0 7.10842262195238 0 0 0 7.10842262195238 " PBC="1 1 1" Properties=species:S:1:pos:R:3:force:R:3 Energy="-513.73916642"
C     1.918648566209440e-02   1.185436098224300e-02   1.562573460328400e-03 -5.11876920e-01  -8.09683600e-02  -5.82900490e-01
C     1.801037012760944e+00   1.771679796014154e+00   7.073519625177764e+00 -2.76229920e-01   9.62002070e-01   1.04283031e+00
C     1.584538486224200e-03   1.776987299763377e+00   1.769068019375114e+00  2.85427800e-02  -1.21191470e-01  -3.27920910e-01
C     1.798693294738904e+00   7.073165199225930e+00   1.781227829277338e+00 -9.49715930e-01   2.26044542e+00  -8.77575500e-02
C     9.067258653491609e-01   8.892763227542635e-01   8.798649844580622e-01  7.66484500e-02   5.28023800e-02  -2.79315460e-01
C     2.681112548697011e+00   2.697853665893599e+00   9.127667450600894e-01 -2.35285820e-01  -9.67071070e-01  -1.09753800e+00
C     8.850456739477444e-01   2.615988024021619e+00   2.671425119266249e+00 -1.88362980e-01   2.16079876e+00  -2.75686280e-01
C     2.633648686768330e+00   9.206605062111469e-01   2.675391761256661e+00  1.40997334e+00  -1.74002619e+00  -7.65843070e-01
C     3.560783828638678e+00   7.094035812375155e+00   7.092940049028282e+00 -8.17136000e-03   3.85939360e-01   3.09178750e-01
C     5.310138841488234e+00   1.778084555879000e+00   7.085537479880267e+00  9.65308100e-02  -7.38768100e-01   1.28865852e+00
C     3.543154585119947e+00   1.780461683487355e+00   1.789604465576972e+00  9.62561000e-03  -2.41813120e-01  -4.34141100e-01
C     5.362100344577041e+00   7.054665742610060e+00   1.766807896403084e+00 -2.10059510e-01   1.72642047e+00   2.70715000e-01
C     4.433994831934837e+00   8.521116411070223e-01   8.887408452782991e-01  3.89994020e-01   8.41468500e-01   9.65126100e-02
C     6.211340396198262e+00   2.673065529954266e+00   8.777365094729556e-01 -1.32789920e-01  -6.92731620e-01  -1.71925730e-01
C     4.428442087605224e+00   2.650919594702787e+00   2.677935154870097e+00  5.95591630e-01  -3.18759730e-01  -9.97127310e-01
C     6.242241206916985e+00   8.970247877469685e-01   2.645553304298497e+00 -1.21878464e+00  -8.20229640e-01   2.57904290e-01
C     7.095038028880349e+00   3.554163825736898e+00   1.083934931633320e-02  9.14101910e-01  -1.29160710e-01  -7.28238780e-01
C     1.749303761122466e+00   5.348247805996316e+00   3.524718464549620e-02  6.64339710e-01  -7.23763980e-01  -3.00283970e-01
C     7.104973400092097e+00   5.331873980996503e+00   1.776232882870716e+00  1.91548640e-01  -4.90808420e-01   6.26700100e-02
C     1.778969909916321e+00   3.538149331500527e+00   1.768850075137584e+00  2.27738720e-01  -1.23825430e-01   1.21211474e+00
C     8.785397612290156e-01   4.401127689350969e+00   9.139798684644186e-01 -1.14268540e-01   1.44854872e+00  -4.38616950e-01
C     2.676855954147928e+00   6.229313971708705e+00   9.320226089269549e-01 -1.72157830e-01  -3.48078270e-01  -1.67649410e+00
C     8.907093807544555e-01   6.209833055181690e+00   2.628941915814723e+00  1.45010990e-01  -1.94350180e-01   1.21246607e+00
C     2.709714993130010e+00   4.438218301234509e+00   2.669794518201447e+00 -1.75097861e+00   3.01157700e-02   8.18802000e-02
C     3.564332495379035e+00   3.627880585169989e+00   5.949664431868559e-02 -1.59960471e+00  -2.12019049e+00  -1.61208824e+00
C     5.349442945091416e+00   5.317487315540111e+00   2.301884954921500e-02  3.39287780e-01   1.52493438e+00  -8.34245470e-01
C     3.548773864285284e+00   5.368046184677540e+00   1.810641557983957e+00  1.05077931e+00  -1.38427072e+00  -5.36480210e-01
C     5.313166460850544e+00   3.536956538184890e+00   1.749615607622805e+00  3.82684400e-02   8.61646750e-01   1.46906986e+00
C     4.427309929134537e+00   4.479302638198646e+00   9.020680003431798e-01  1.01788648e+00  -2.11338670e-01   4.40826230e-01
C     6.280528308495924e+00   6.232301073062082e+00   8.860422747990684e-01 -1.67099893e+00  -1.00430508e+00  -2.04685940e-01
C     4.481558353948650e+00   6.192920411747282e+00   2.677008927402711e+00 -1.13783008e+00   1.05535747e+00   2.93376920e-01
C     6.184762288358987e+00   4.459025436169738e+00   2.668101363017589e+00  1.32518075e+00  -1.05778461e+00  -7.03289600e-01
C     3.778695296339600e-03   1.141825925450600e-02   3.524539261215370e+00  7.99841870e-01  -8.12710780e-01   3.87085220e-01
C     1.764502848200097e+00   1.748692294608693e+00   3.557274755812315e+00  1.01093370e-01   1.24188384e+00  -6.82396200e-02
C     7.107480398581719e+00   1.767816581572862e+00   5.320262585899412e+00  2.08533000e-02   5.78397660e-01  -1.91310940e-01
C     1.768588485185168e+00   8.818140428562399e-03   5.339111208234377e+00  4.75790610e-01  -9.70233600e-01  -6.78363140e-01
C     9.306209701547433e-01   8.658653015291032e-01   4.421364657707848e+00 -2.36977993e+00   4.95911500e-01   8.82542350e-01
C     2.638852620799980e+00   2.672040993002045e+00   4.421898358078156e+00  1.08105441e+00  -1.42686360e-01   2.64771450e-01
C     9.042711848500227e-01   2.691587733522522e+00   6.198489292196243e+00 -5.46751130e-01  -1.07365211e+00   3.24744280e-01
C     2.657474910958725e+00   8.753137457913810e-01   6.190458409572845e+00  7.49274180e-01   5.12116680e-01   5.59626190e-01
C     3.553257004263265e+00   2.869030453658200e-02   3.539177635916736e+00 -1.60798120e-01  -1.27739624e+00   3.21926460e-01
C     5.290164955852522e+00   1.731624047803132e+00   3.543415108808970e+00  1.87299072e+00   1.99039956e+00  -5.08770050e-01
C     3.545342131097026e+00   1.791155167971525e+00   5.296721409456079e+00 -3.92796130e-01  -5.10802630e-01   1.17648189e+00
C     5.348568964530287e+00   1.545861558748780e-02   5.282547356920252e+00 -5.77757260e-01  -6.49054170e-01   1.07817074e+00
C     4.436403592023850e+00   8.849136705396909e-01   4.395563002871355e+00 -1.95522240e-01   3.87418500e-02   1.51228977e+00
C     6.166931876480110e+00   2.655126927883113e+00   4.455519633217780e+00  1.25166957e+00   8.58313900e-02  -4.84177270e-01
C     4.391053917150810e+00   2.659354377899453e+00   6.275705243748254e+00  8.70492690e-01   1.05089118e+00  -1.57753635e+00
C     6.197228258023455e+00   8.817254719103949e-01   6.203775755014510e+00  1.14168084e+00   6.45550870e-01  -6.59805000e-03
C     5.398136137627999e-04   3.584278089492718e+00   3.518308231199356e+00 -8.01884650e-01  -1.47674118e+00   1.78044563e+00
C     1.776958439567540e+00   5.323869115199895e+00   3.535588593335898e+00  3.29782110e-01   4.17106060e-01   8.64348720e-01
C     9.510216454845601e-03   5.371457445608652e+00   5.349049067394042e+00 -1.57630090e-01  -1.58955774e+00  -5.13574410e-01
C     1.797627884356619e+00   3.573489494313892e+00   5.307098782386339e+00 -9.62260510e-01   1.38176780e-01   1.18055779e+00
C     8.916262251039831e-01   4.461835040210293e+00   4.461063847440250e+00 -1.35416380e-01  -1.60660980e-01  -1.36983762e+00
C     2.654441889195224e+00   6.235392668227973e+00   4.448055007540292e+00  6.25365800e-01  -4.62614650e-01  -3.77001720e-01
C     8.923797179017031e-01   6.212495017284429e+00   6.216145334468250e+00 -6.99015600e-02   1.26316310e+00   9.81339870e-01
C     2.643057821453520e+00   4.486404947575192e+00   6.253009187670214e+00  8.79343420e-01  -8.99657100e-01  -3.44401570e-01
C     3.572016273725898e+00   3.529849821586319e+00   3.549510723374072e+00 -7.85922340e-01   6.61957140e-01   2.10274450e-01
C     5.335749848430058e+00   5.291461958643767e+00   3.581381904864652e+00 -2.48882500e-01   1.04896099e+00  -8.58273100e-02
C     3.544450663816252e+00   5.331544576692292e+00   5.362022223012447e+00  3.98511390e-01   5.97828880e-01  -1.14253408e+00
C     5.287024952328589e+00   3.546396025834667e+00   5.378513336985490e+00  1.22106580e+00  -1.62563510e-01  -8.16199840e-01
C     4.434931224446570e+00   4.409063887785068e+00   4.455864320630624e+00 -2.96170080e-01   6.92606290e-01   7.67828350e-01
C     6.245290649136740e+00   6.219824227511006e+00   4.439503575128432e+00 -5.66175260e-01   2.33961340e-01  -4.38720290e-01
C     4.483836461229907e+00   6.236275178896245e+00   6.204476503316389e+00 -1.02199545e+00  -8.73597070e-01   3.45065880e-01
C     6.233928333168253e+00   4.455179353026961e+00   6.234102844943574e+00 -8.59831120e-01  -4.37950630e-01  -1.96909800e-02
