64
Lattice="7.10842262195238 0 0 0 7.10842262195238 0 0 0 7.10842262195238 " PBC="1 1 1" Properties=species:S:1:pos:R:3:force:R:3 Energy="-501.93487659"
C     7.017656308912839e+00   7.026821340365258e+00   7.096913799441315e+00  4.10300398e+00   3.56955100e-02  -1.93894420e-01
C     1.697539658929816e+00   1.799657054677724e+00   7.098673489460896e+00  2.87469865e+00  -1.75547008e+00   5.07425300e-01
C     8.512336087450000e-04   1.727736096051123e+00   1.692814406077397e+00  3.12683920e-01  -1.33512500e-01   3.35900247e+00
C     1.786551895651265e+00   7.099758874510744e+00   1.788812302960199e+00  1.19855827e+00   7.62457610e-01  -1.13556972e+00
C     9.861577254845055e-01   8.650700112063775e-01   8.490091700545235e-01 -5.92434953e+00  -8.88590770e-01   1.28668824e+00
C     2.605153579516894e+00   2.630133145277383e+00   9.487135406598460e-01  8.58317600e-01   2.01128156e+00  -1.91140714e+00
C     9.898362631061295e-01   2.698264674889488e+00   2.633441689501636e+00 -5.17615768e+00  -1.81382312e+00  -6.45559310e-01
C     2.704616974595398e+00   8.598205121857337e-01   2.648053549786630e+00 -2.23184605e+00  -1.09862940e-01   1.60190745e+00
C     3.591926254642256e+00   2.438515946100520e-02   7.100889326960003e+00 -6.03256700e-02  -9.11713100e-01   3.33169758e+00
C     5.355441458603529e+00   1.839973753083125e+00   7.051169464944413e+00 -6.10281090e-01  -2.21273663e+00   1.15129878e+00
C     3.504622100792166e+00   1.810303268151472e+00   1.845813962023491e+00  1.28226111e+00  -3.02901006e+00  -3.09508099e+00
C     5.324549249076177e+00   7.022315311266439e+00   1.730858257434280e+00 -9.36278710e-01   4.56104993e+00   6.58154720e-01
C     4.451812306484546e+00   9.531973914800896e-01   8.620985483827652e-01  8.68092400e-02  -1.70318608e+00  -8.29947300e-02
C     6.198826373596884e+00   2.610688339537278e+00   9.559855280843321e-01  4.58469740e-01   4.10417433e+00  -2.89863101e+00
C     4.381817446051061e+00   2.583246060760089e+00   2.688893357012637e+00  1.44707062e+00   5.62298323e+00   5.85565700e-02
C     6.063737270368367e+00   9.100963239344340e-01   2.658404763721647e+00  6.96151228e+00  -2.77714697e+00  -1.48416206e+00
C     1.029726100733200e-02   3.594927146335515e+00   8.768573397633139e-02 -5.64021370e-01  -2.62252940e-01  -2.74704453e+00
C     1.823058479532347e+00   5.409211344406865e+00   7.084648927052767e+00  4.44645570e-01  -1.19000116e+00  -6.48232360e-01
C     1.484011884374422e-01   5.351684443996181e+00   1.765037330496895e+00 -4.79541275e+00  -1.39310355e+00   1.10588170e-01
C     1.749142755350122e+00   3.596420199422619e+00   1.736781137329716e+00  3.34062910e+00  -5.76587770e-01   2.04580013e+00
C     1.035693479354238e+00   4.557183085097175e+00   8.666477256068865e-01 -4.32477877e+00  -3.05605827e+00   5.96224540e-01
C     2.683632413431575e+00   6.219607491705322e+00   9.137085399730132e-01  5.26458880e-01   5.04243900e-01  -3.38553050e-01
C     8.841296115247049e-01   6.235489200607153e+00   2.628578248913484e+00  1.58336183e+00   8.73323510e-01   1.73788322e+00
C     2.707877963472323e+00   4.333568814265132e+00   2.729088288138558e+00 -3.50820550e+00   6.27417206e+00  -4.37404239e+00
C     3.541823248647447e+00   3.500193695668358e+00   5.980422576545300e-02  4.43580300e-01   1.61763540e+00  -5.68642110e-01
C     5.342495954749117e+00   5.187173295206581e+00   1.392806557106250e-01  6.18840260e-01   6.44107498e+00  -5.34977691e+00
C     3.574936555906645e+00   5.301448439414153e+00   1.781865099365221e+00 -1.23295443e+00   8.02442300e-02   5.76905160e-01
C     5.280889317344137e+00   3.607344138968131e+00   1.822119527988471e+00  1.22152361e+00  -3.57754299e+00   7.03629530e-01
C     4.455873917001162e+00   4.476263432107464e+00   9.340634370611570e-01 -2.19331955e+00  -5.28616786e+00   7.28523020e-01
C     6.188200987801411e+00   6.131980970889415e+00   9.093771648179687e-01  2.85997848e+00   1.33779595e+00   6.16808460e-01
C     4.461198552048899e+00   6.207469717913219e+00   2.569553959277898e+00 -1.15874459e+00  -4.45924500e-01   3.86681527e+00
C     6.215317558654152e+00   4.396685209550373e+00   2.737248259716734e+00  1.07980560e+00   1.46660303e+00  -2.56317871e+00
C     2.174608647910400e-02   7.016843745123147e+00   3.542215846828750e+00 -1.30187588e+00   4.41848745e+00  -4.27711510e-01
C     1.768515623853313e+00   1.791872692150788e+00   3.525949572263178e+00  1.82690880e+00  -3.10922420e-01   1.65818390e-01
C     7.075725439800975e+00   1.719350645307441e+00   5.214650902844191e+00  9.46912830e-01   6.91804890e-01   3.71617743e+00
C     1.802738911304625e+00   1.066590380440520e-02   5.175799463593449e+00 -2.20313200e+00   2.18579466e+00   9.13832814e+00
C     9.353001604285845e-01   8.802525356593046e-01   4.411111966510343e+00 -1.67787884e+00   8.78387150e-01  -2.62977854e+00
C     2.676862707149418e+00   2.684324418373632e+00   4.428850395400517e+00 -2.24491170e+00  -7.15742900e-01   1.88572361e+00
C     7.985299863346650e-01   2.672628788468494e+00   6.208404901993107e+00  1.73081622e+00  -4.13308600e-02   8.40683680e-01
C     2.686329917647412e+00   8.540960994498478e-01   6.377967295896479e+00 -2.00000594e+00   2.86618213e+00  -8.01961583e+00
C     3.538391160038059e+00   7.048416301779461e+00   3.530218037878035e+00  1.91054124e+00   2.45794122e+00   5.82489300e-02
C     5.382814217007494e+00   1.865822821098494e+00   3.525802214662265e+00 -5.61724144e+00  -4.94274289e+00  -1.58809773e+00
C     3.550019544265212e+00   1.828147186033327e+00   5.256856166971274e+00 -9.87924300e-02  -2.15388639e+00   2.61652905e+00
C     5.268185144437672e+00   8.235271098990260e-02   5.295870033678882e+00  3.76076229e+00  -4.19101508e+00   2.02508749e+00
C     4.452335344220925e+00   9.334870150709011e-01   4.388845756748133e+00 -8.15897180e-01  -7.54782010e-01   9.73138580e-01
C     6.154485454977847e+00   2.635553886198942e+00   4.377347243402247e+00  3.60357822e+00   2.17385739e+00   2.79928305e+00
C     4.368721670142460e+00   2.700999853745211e+00   6.173069004233313e+00  2.51527273e+00  -1.15781238e+00   1.21578631e+00
C     6.290175362086205e+00   7.597923529300702e-01   6.201949672327658e+00 -4.43369592e+00   5.97568452e+00  -1.66240018e+00
C     1.813827766254920e-02   3.474798002847693e+00   3.493287081166540e+00  1.80805370e-01   2.77657428e+00   2.66721768e+00
C     1.731762875296901e+00   5.459999460173788e+00   3.620668237411285e+00  2.77773457e+00  -5.08527931e+00  -1.10476670e+00
C     2.829912803980340e-02   5.301675482432636e+00   5.333169064513641e+00 -1.77697535e+00   9.36348340e-01  -3.20713700e-02
C     1.813401616318851e+00   3.555383062384681e+00   5.503662022022198e+00 -1.33775509e+00   4.83529000e-02  -6.55659660e+00
C     9.191919060978548e-01   4.489357217657730e+00   4.430785379121907e+00 -9.12728160e-01  -2.31337614e+00   1.80683852e+00
C     2.678151179833519e+00   6.252699900202018e+00   4.563047320505996e+00  7.48397230e-01  -6.93800360e-01  -6.17709547e+00
C     8.281197906695817e-01   6.226630044580072e+00   6.156255452210227e+00  3.11547217e+00  -2.47246860e-01   1.16331469e+00
C     2.734491826677377e+00   4.407572682887844e+00   6.262379510367898e+00 -1.72862782e+00   2.59448891e+00   9.09906390e-01
C     3.490745962248342e+00   3.540190515055860e+00   3.533433888271323e+00  2.98310151e+00  -9.45066970e-01   2.78300420e+00
C     5.348900359192831e+00   5.404497180693733e+00   3.549117414350508e+00  1.72948290e-01  -3.07107100e+00  -1.47152600e-02
C     3.550285825776557e+00   5.431233948525887e+00   5.374374600083447e+00  1.00722804e+00  -4.92795231e+00   7.16967610e-01
C     5.222276392125569e+00   3.547265670257998e+00   5.299303472888568e+00  2.64291829e+00   2.63536022e+00  -2.25402590e-01
C     4.361744682256704e+00   4.499797286875498e+00   4.389435542572914e+00  2.09014482e+00   4.63360000e-03   1.47864446e+00
C     6.312111243449263e+00   6.198929161387968e+00   4.449002560275538e+00 -4.22995447e+00   7.37728210e-01  -5.71393260e-01
C     4.465527936845610e+00   6.182325023495268e+00   6.321206256938874e+00 -4.92508630e-01   1.93262171e+00  -2.85086858e+00
C     6.214587310398399e+00   4.552867135219215e+00   6.247876693285895e+00 -1.08955390e-01  -6.31800743e+00   6.33909000e-03
