64
Lattice="7.10842262195238 0 0 0 7.10842262195238 0 0 0 7.10842262195238 " PBC="1 1 1" Properties=species:S:1:pos:R:3:force:R:3 Energy="-513.85662739"
C     8.941329392566999e-03   7.101013226766269e+00   7.081028038738592e+00 -7.72841300e-02   6.92160330e-01   2.44900420e-01
C     1.802798835307311e+00   1.792069311120457e+00   3.717008404843240e-02 -1.34916904e+00  -3.07715280e-01  -2.16784232e+00
C     7.104490738196199e+00   1.780494666568311e+00   1.731565545484970e+00  5.13907350e-01  -6.56148970e-01   7.84492590e-01
C     1.780423653426337e+00   5.263076107848000e-04   1.730142794697577e+00  5.85487170e-01  -5.76373370e-01   1.35064217e+00
C     9.029163905828768e-01   8.852002821397293e-01   8.504504738249546e-01 -3.48738990e-01   3.74799100e-02   8.83504880e-01
C     2.646306228422407e+00   2.657753347872750e+00   9.062352420199284e-01  7.67140320e-01   1.11568588e+00   3.87671270e-01
C     8.633536825647786e-01   2.658046357053147e+00   2.674873557247663e+00  3.11913170e-01  -4.71534100e-02  -9.06983900e-02
C     2.684640956432900e+00   8.620449508762104e-01   2.640604349386226e+00 -9.80583360e-01   1.34846570e+00   1.23911380e-01
C     3.539095960140832e+00   6.662866690178400e-03   5.997589417172600e-03  2.83154530e-01  -3.33880330e-01  -1.19828440e-01
C     5.280156936561598e+00   1.753152118960481e+00   8.413671181484400e-03  1.87831841e+00   1.22950842e+00  -6.45687280e-01
C     3.572577839112877e+00   1.780748437255845e+00   1.758160429201628e+00 -9.34686540e-01  -4.66559970e-01   8.90649420e-01
C     5.330415474843331e+00   7.092959241769357e+00   1.750015669647859e+00  6.72521220e-01   2.54986850e-01   1.24714296e+00
C     4.437931263129115e+00   8.828069473278015e-01   9.262133216249862e-01 -6.75378900e-02  -4.57479670e-01  -2.10714744e+00
C     6.229867859999256e+00   2.646811495102237e+00   8.501015213585388e-01 -6.25492260e-01   5.91810350e-01   6.51191660e-01
C     4.443436167774495e+00   2.652503919936333e+00   2.624415556627212e+00  4.09260360e-01   4.27687680e-01   1.80010456e+00
C     6.246422025680938e+00   8.642774931684738e-01   2.623433385873807e+00 -5.97336930e-01   5.69385730e-01   1.09226913e+00
C     1.965045240650180e-02   3.571288229081157e+00   7.075899596155167e+00 -9.12784720e-01  -5.88129660e-01   1.29536418e+00
C     1.786999726276326e+00   5.321038896733742e+00   5.874229851025120e-02  1.20342170e-01  -5.88621430e-01  -1.52015160e+00
C     2.027819720807400e-02   5.336465311166761e+00   1.754090217493643e+00 -1.23940693e+00  -3.45202640e-01   1.17857738e+00
C     1.758195829146276e+00   3.562024035133190e+00   1.830593336425321e+00  1.51978320e-01  -3.41199130e-01  -1.06143560e+00
C     8.805862050170874e-01   4.443222701843216e+00   9.278963828487234e-01  6.80106520e-01  -5.05897640e-01  -1.22174496e+00
C     2.690512797853925e+00   6.187438467306964e+00   8.843375328863400e-01 -3.73860140e-01   1.20828721e+00   5.83174800e-01
C     9.090704363819155e-01   6.214876267777902e+00   2.647906405438395e+00 -2.40520240e-01   3.26268880e-01   7.73979000e-02
C     2.640190354852838e+00   4.463405077514373e+00   2.698351539813904e+00  1.43448217e+00  -1.16929473e+00  -9.23571940e-01
C     3.526608523040052e+00   3.572340986471179e+00   1.178341892449540e-02  1.03982997e+00  -6.86952930e-01   1.29985250e-01
C     5.302540222044358e+00   5.337962700391664e+00   2.426929217229920e-02  7.70863040e-01  -1.19032876e+00  -1.08838400e+00
C     3.595145161657270e+00   5.322557611226505e+00   1.794730135875575e+00 -1.34980120e+00   1.82229450e-01   2.13742920e-01
C     5.349535070248572e+00   3.529617660503550e+00   1.787037685253116e+00  2.65506200e-02   4.92414940e-01  -1.14987572e+00
C     4.463650175926310e+00   4.421177990529846e+00   9.050424487042925e-01 -7.22818920e-01   4.42794410e-01   2.53182040e-01
C     6.215467190950303e+00   6.200642433407840e+00   8.647811249111008e-01  1.66815870e-01   9.37700330e-01   2.85623240e-01
C     4.454873904106980e+00   6.241978266364272e+00   2.683391366820531e+00  3.67874680e-01  -8.83628440e-01  -6.65058780e-01
C     6.224643666963139e+00   4.433164354920142e+00   2.658437462465699e+00 -3.09809240e-01   2.34164250e-01   6.07601130e-01
C     2.071522303075160e-02   7.080079561908405e+00   3.553108224977828e+00 -8.66395110e-01   7.13567930e-01  -5.63747410e-01
C     1.756804995176447e+00   1.765956378457435e+00   3.531052069104040e+00  5.84587670e-01  -4.91491050e-01   1.01075377e+00
C     7.099034028656183e+00   1.784191686088747e+00   5.314769410151355e+00  4.95667340e-01  -5.37960130e-01   9.75989860e-01
C     1.808280637579177e+00   7.065958893626454e+00   5.313595951745245e+00 -4.42892360e-01   1.85564825e+00   1.13403756e+00
C     8.646786925411465e-01   8.481268015547028e-01   4.472165426467034e+00  1.26050395e+00   7.68675220e-01  -1.42279110e+00
C     2.662020747224215e+00   2.688364419285483e+00   4.434561657554556e+00 -6.94550830e-01  -8.58885190e-01  -1.88494510e-01
C     8.921317761207176e-01   2.674518420453568e+00   6.218125883178635e+00  2.62907540e-01   2.24259400e-02  -2.56396070e-01
C     2.672059901406215e+00   9.292326952170573e-01   6.220248387088741e+00 -5.36761700e-02  -1.37677614e+00   1.18531860e-01
C     3.565085490587172e+00   1.318200107498040e-02   3.536381964384516e+00  4.78144360e-01   7.36300570e-01   3.08214520e-01
C     5.350993434233291e+00   1.789832717027301e+00   3.547951135451245e+00 -5.04854700e-01  -1.01995820e+00  -1.34220390e-01
C     3.549296546600532e+00   1.811090739209315e+00   5.338013170192267e+00 -5.12261250e-01  -5.57932900e-02  -1.28713380e-01
C     5.300206384729760e+00   7.098028186855452e+00   5.372408339302529e+00  9.35184510e-01   8.72178090e-01  -1.60198811e+00
C     4.428994127705893e+00   9.314475375369969e-01   4.480238888541925e+00  6.76449060e-01  -1.26096714e+00  -1.43535219e+00
C     6.227864066746904e+00   2.655792915998381e+00   4.452408632058138e+00 -6.59679130e-01   6.57060500e-01  -6.20487490e-01
C     4.420075474181484e+00   2.689309128651681e+00   6.222569997916433e+00  8.64873000e-02  -7.02961930e-01   4.91051160e-01
C     6.221132817031121e+00   9.246280722964999e-01   6.196850658613880e+00 -9.97037570e-01  -1.94863449e+00   1.12009180e+00
C     7.093068213888121e+00   3.543966224814699e+00   3.581098207717888e+00  2.02393990e-01   7.38707450e-01  -1.00422095e+00
C     1.782676881228425e+00   5.336868571981993e+00   3.554171218496423e+00 -1.91966700e-02   5.19135460e-01  -9.84972600e-02
C     7.104188274813718e+00   5.357330379746342e+00   5.326233874152891e+00 -1.38061550e-01  -8.03581030e-01   8.95365140e-01
C     1.752978104774743e+00   3.569887158982755e+00   5.322948787723283e+00  8.31091550e-01   1.55350050e-01   2.22638800e-01
C     8.523110323615134e-01   4.479240794921852e+00   4.436653879584300e+00  1.23712587e+00  -9.46199310e-01   5.08352800e-01
C     2.727087267171028e+00   6.244893572649186e+00   4.395078777122481e+00 -2.33175395e+00  -9.68105540e-01   1.60943517e+00
C     9.239369203651573e-01   6.197603511653564e+00   6.261469347935632e+00 -5.95027530e-01   3.27840060e-01  -1.71365635e+00
C     2.674720441824428e+00   4.439206727399821e+00   6.241530364654985e+00 -1.29696847e+00   8.75148530e-01  -8.18235970e-01
C     3.547705610533950e+00   3.535172537359949e+00   3.542844373556810e+00  7.76669900e-02   1.14383932e+00   3.22789400e-01
C     5.321717253504368e+00   5.338172114522050e+00   3.571085994457618e+00  5.68867090e-01  -3.90604300e-01  -5.08895480e-01
C     3.556073432389535e+00   5.365554611465003e+00   5.322781739791713e+00 -3.34204060e-01  -1.77501320e+00   2.32248790e-01
C     5.320044641661882e+00   3.541381886686972e+00   5.330450803703753e+00  2.80175740e-01   6.86378360e-01   6.12852700e-01
C     4.431924361678309e+00   4.449096462538348e+00   4.461869089554643e+00  4.00500990e-01  -4.88989660e-01  -8.81927930e-01
C     6.218965316805831e+00   6.219593274860082e+00   4.437248285883785e+00 -4.76468230e-01   3.48626860e-01   6.12195510e-01
C     4.401771712440341e+00   6.191975915633763e+00   6.226900733313442e+00  1.40165787e+00   1.75381406e+00   6.05424310e-01
C     6.209256917528340e+00   4.441990527866266e+00   6.229751779457872e+00  8.32825600e-02   5.00214360e-01  -7.06597620e-01
