64
Lattice="7.10842262195238 0 0 0 7.10842262195238 0 0 0 7.10842262195238 " PBC="1 1 1" Properties=species:S:1:pos:R:3:force:R:3 Energy="-510.98535055"
C     7.100007953639349e+00   3.497201760587600e-03   6.501583689353220e-02  8.64420790e-01   1.65404290e-01  -1.11635926e+00
C     1.790197876697290e+00   1.761966847346186e+00   4.045751625750379e-02 -7.73435960e-01   9.59819700e-02  -2.31879071e+00
C     7.881250327246401e-03   1.799796521929528e+00   1.807217572976356e+00 -9.51121940e-01  -1.61421280e+00   2.30628800e-01
C     1.822460163600422e+00   7.089475403843294e+00   1.763214233347544e+00 -1.45827093e+00   7.23521590e-01   7.48984180e-01
C     8.871651212361236e-01   9.098438327629714e-01   9.230526325912294e-01  8.20312030e-01  -1.03014027e+00  -1.50564830e-01
C     2.696837232543166e+00   2.650681178208112e+00   8.551086231678405e-01 -6.78705710e-01   1.27086700e-01   3.28549140e-01
C     9.064841078958547e-01   2.665054906335336e+00   2.642819120621940e+00  5.29308990e-01   7.30134480e-01   1.41969646e+00
C     2.699082285659240e+00   8.470338104926516e-01   2.654504443314280e+00 -5.21157650e-01   1.59054876e+00  -6.78258200e-02
C     3.571665757406505e+00   1.246682267518220e-02   7.082264619937567e+00  6.23146400e-02  -4.65115170e-01  -1.19191205e+00
C     5.307274715846184e+00   1.731952172591272e+00   5.917903999602400e-03  8.77477750e-01   1.14346385e+00  -1.02094424e+00
C     3.574736098388762e+00   1.740712521543934e+00   1.701559258668747e+00 -4.99682560e-01   1.22010540e-01   1.32093166e+00
C     5.323668231176653e+00   2.702195774766800e-03   1.761785724737828e+00  9.38476320e-01  -1.36519357e+00   1.86555512e+00
C     4.478187042352663e+00   8.344251747862004e-01   8.148048620916074e-01 -1.14870351e+00   1.02303400e+00   2.23422325e+00
C     6.144038419505912e+00   2.598637146332687e+00   9.280491428508274e-01  5.72951350e-01   1.71619803e+00   1.57052000e-03
C     4.355842914376450e+00   2.698388361443075e+00   2.571618956049008e+00  2.56755182e+00  -7.17186750e-01   2.69441632e+00
C     6.229612596542972e+00   8.730230566020860e-01   2.708564921434320e+00  2.59799500e-02   9.11780430e-01  -1.82740352e+00
C     7.042639784305769e+00   3.456244806556815e+00   7.840874486764800e-02  9.23141200e-01   1.50664518e+00  -1.36002903e+00
C     1.763319580170772e+00   5.379437574094542e+00   3.282712216451720e-02 -6.60011760e-01  -1.49123906e+00  -5.32551740e-01
C     3.177607079592400e-03   5.262666094031278e+00   1.836007964103427e+00  1.29246850e-01   4.86140040e-01  -1.02129389e+00
C     1.838528824017158e+00   3.512062273495841e+00   1.733817493770986e+00 -2.41475812e+00   1.41792776e+00   1.62797542e+00
C     8.228781819980462e-01   4.376283467957164e+00   9.162228601379334e-01  2.63484302e+00   6.96725740e-01  -2.37267580e-01
C     2.706012571208383e+00   6.255810474856303e+00   8.863461598660733e-01 -1.88979230e+00  -1.47336900e-01  -1.05793973e+00
C     9.341070116918175e-01   6.166579369802384e+00   2.641232165272025e+00 -5.58717040e-01   1.15683802e+00   9.92125260e-01
C     2.662058564032553e+00   4.467370368904487e+00   2.633629280774578e+00  5.14154790e-01  -1.50460214e+00   8.86610870e-01
C     3.525565148767888e+00   3.599537882499525e+00   7.105579108783548e+00  6.72150790e-01  -4.63344060e-01  -1.28442037e+00
C     5.409879038543561e+00   5.457941998330655e+00   7.083862806595221e+00 -2.20211782e+00  -4.25152879e+00  -1.44516900e-01
C     3.521657648853674e+00   5.379990040700569e+00   1.736166543109991e+00  9.39979890e-01  -1.15668293e+00   1.21269115e+00
C     5.232993974162421e+00   3.604123810268592e+00   1.743623918196407e+00  1.58763903e+00  -9.92204460e-01  -4.93903980e-01
C     4.386956835605321e+00   4.558254253301783e+00   7.945599323013950e-01  2.03260070e+00  -1.63707276e+00   2.11728475e+00
C     6.291040030613702e+00   6.171680373874496e+00   9.735502271256735e-01 -2.16654433e+00   2.51446550e+00  -2.01807343e+00
C     4.392755957862943e+00   6.179577973573768e+00   2.688843953475428e+00  1.43425263e+00   1.18811195e+00  -1.45897126e+00
C     6.177640146483330e+00   4.415145854178740e+00   2.661798324680435e+00  3.43586330e-01  -4.41651990e-01   6.83749720e-01
C     5.297502198596660e-02   7.092595645952344e+00   3.533845963530605e+00 -9.53813700e-01  -3.28091900e-02  -7.54936900e-02
C     1.824354700397104e+00   1.835283544754223e+00   3.541657764568854e+00 -5.86700830e-01  -1.89791374e+00   7.06748780e-01
C     7.100375032583446e+00   1.796084432553138e+00   5.320944212544443e+00 -7.42517400e-01  -8.30735790e-01   5.67171590e-01
C     1.725697826949065e+00   7.093232347366417e+00   5.321741564309729e+00  1.14525078e+00   1.80017970e+00   4.26244500e-01
C     8.947001202975498e-01   9.490055546610756e-01   4.406509191779667e+00  1.39459080e-01  -1.76726212e+00   7.41803960e-01
C     2.688795260780481e+00   2.683503964234831e+00   4.541547043281092e+00 -3.83405700e-01   4.17593700e-01  -3.00464521e+00
C     8.074229784534160e-01   2.607311341203194e+00   6.274329621802832e+00  2.87923042e+00   1.91488635e+00  -5.86627290e-01
C     2.678936589448803e+00   8.842739835881173e-01   6.193942745088490e+00 -7.98283400e-01  -2.58939460e-01   1.07826292e+00
C     3.556469371529469e+00   7.085523405203479e+00   3.571175916003761e+00 -6.51544670e-01   5.23404690e-01  -1.22379439e+00
C     5.319819517917507e+00   1.812932886931288e+00   3.525819772466136e+00  7.12316200e-02   9.38044000e-02  -8.59808090e-01
C     3.589003697766268e+00   1.762535023566203e+00   5.339790702352623e+00 -7.84452810e-01   3.93187950e-01  -5.98141440e-01
C     5.379062960222468e+00   7.089141592317059e+00   5.237103566531722e+00 -7.27536930e-01   1.64260804e+00   6.33921820e-01
C     4.456783155338486e+00   9.043089305741348e-01   4.311815619363408e+00  1.66784650e-01  -2.36093870e-01   4.30594628e+00
C     6.160989235169790e+00   2.713121775754871e+00   4.480024285263028e+00  2.12203004e+00  -1.79071648e+00  -1.40952050e+00
C     4.436525785808688e+00   2.670773205827769e+00   6.237821900574131e+00  2.86870140e-01  -6.45627800e-02  -1.62660730e-01
C     6.227681877875153e+00   8.903658306892310e-01   6.228542210264852e+00 -3.16481760e-01  -9.97488780e-01  -1.07312322e+00
C     8.565933594004800e-03   3.546580986991239e+00   3.598034166778490e+00 -8.07279960e-01   2.64146700e-01  -1.44156127e+00
C     1.782144886879544e+00   5.303177349963789e+00   3.549195606999328e+00  5.72961350e-01   8.09527250e-01   2.97347070e-01
C     2.861211188776200e-02   5.279128987566520e+00   5.373375511284206e+00 -7.07903400e-01   7.45492770e-01  -1.08636764e+00
C     1.764026086294974e+00   3.608935003950487e+00   5.365412371928377e+00  1.42886420e-01  -2.13320201e+00   6.38750850e-01
C     9.145194688255027e-01   4.442580526943726e+00   4.461853806446010e+00 -6.63161590e-01  -2.53991790e-01  -3.68563380e-01
C     2.649401946473417e+00   6.239145702118654e+00   4.481895861854648e+00 -1.22970920e-01  -4.56434530e-01  -1.43629480e+00
C     8.543044473168400e-01   6.230381372449324e+00   6.242999888863218e+00  6.46167090e-01   3.21601900e-02   2.28906260e-01
C     2.629660364088927e+00   4.487481518180990e+00   6.242528813696191e+00  4.83354960e-01   1.26362660e-01  -7.34062000e-03
C     3.585981338636697e+00   3.547476506072907e+00   3.593399404146024e+00 -1.73605114e+00   1.04639918e+00  -8.12959870e-01
C     5.302214300867232e+00   5.283494625318593e+00   3.526458322070091e+00  1.00123649e+00   1.41187270e+00   7.98032050e-01
C     3.549341187494586e+00   5.410007772077210e+00   5.360703113026854e+00 -4.07886600e-02  -2.59580617e+00  -8.97960210e-01
C     5.351760788455119e+00   3.563928665889992e+00   5.374525582979897e+00 -1.58615887e+00   4.75926050e-01   6.46748100e-02
C     4.460195695785669e+00   4.481145781099785e+00   4.480716929963120e+00 -6.48464250e-01  -1.26022394e+00  -3.87308060e-01
C     6.248819199041081e+00   6.172000537229301e+00   4.376777076823897e+00  1.50074290e-01   3.67118820e-01   1.82354349e+00
C     4.465869567636727e+00   6.283410418447204e+00   6.127843726756122e+00  9.69203690e-01  -2.97527890e-01   2.39768385e+00
C     6.259738162690758e+00   4.366713398583858e+00   6.266336982493129e+00 -1.06605300e+00   2.77383991e+00  -3.06237020e-01
