64
Lattice="7.10842262195238 0 0 0 7.10842262195238 0 0 0 7.10842262195238 " PBC="1 1 1" Properties=species:S:1:pos:R:3:force:R:3 Energy="-509.82164626"
C     5.267497546717640e-02   7.031723948362045e+00   6.329410585074200e-03 -1.83972367e+00   2.61495980e+00   4.11790980e-01
C     1.808344115793173e+00   1.814775176821714e+00   2.003864336578000e-03  2.53191240e-01  -1.92596785e+00   1.24762973e+00
C     7.107028871576897e+00   1.762695247412057e+00   1.735206977140517e+00 -5.54231100e-02  -1.06841070e-01   2.43942301e+00
C     1.718083924396557e+00   2.747476426856200e-03   1.884129070787553e+00  1.48954635e+00   3.13830030e-01  -2.47953687e+00
C     8.983343013620247e-01   8.739049985965495e-01   9.417949840080261e-01  1.19357940e-01  -1.99847800e-02  -2.03775730e+00
C     2.707440511144288e+00   2.665174683256483e+00   9.506763183136804e-01 -2.01057623e+00   9.52512600e-01  -2.21586265e+00
C     9.071079430649861e-01   2.648375205910185e+00   2.637146812623858e+00 -1.52766314e+00   1.38003977e+00  -9.96395700e-02
C     2.659733398993551e+00   9.007313325537150e-01   2.710515188264343e+00  2.59283000e-03  -7.74459860e-01  -6.92883770e-01
C     3.461258021609570e+00   7.032171423565974e+00   5.801482253932040e-02  2.81253618e+00   2.28087395e+00  -7.50650430e-01
C     5.353519412211308e+00   1.830538885908052e+00   7.037773926853927e+00 -9.09079260e-01  -3.60318627e+00   1.57294640e+00
C     3.560028345482624e+00   1.817661125321207e+00   1.826516371715846e+00 -5.04627320e-01  -2.32813152e+00  -8.09920750e-01
C     5.346317087328497e+00   4.442806788035720e-02   1.771881604132336e+00 -1.09192227e+00  -5.56095600e-02  -1.07702950e-01
C     4.387982225568256e+00   9.052161785531254e-01   8.880636258552916e-01  1.56394377e+00   1.45827320e-01   5.43108000e-02
C     6.273740475736086e+00   2.605372661102042e+00   8.468617155810214e-01 -2.02089199e+00   2.67641769e+00   3.35346100e-02
C     4.450786845437384e+00   2.644747991099877e+00   2.681532372136948e+00  1.36891598e+00   4.82095730e-01  -3.92667980e-01
C     6.177523781605040e+00   9.308748119265036e-01   2.715461228723339e+00  1.14881623e+00  -1.19859628e+00  -1.16578994e+00
C     1.484807316865600e-03   3.547813516389321e+00   2.738214152182340e-02  1.77807939e+00   1.92818537e+00  -2.02535370e+00
C     1.821737805693777e+00   5.390971984974659e+00   3.289166664190680e-02 -1.25460230e+00  -2.01898642e+00  -2.49999621e+00
C     7.072441348550536e+00   5.354445568594468e+00   1.731386839740303e+00 -3.34445090e-01   1.05029980e-01   1.52539583e+00
C     1.746517188371199e+00   3.601778670562028e+00   1.758081241373642e+00  1.68411900e+00  -1.19778759e+00   2.81465520e-01
C     8.715663275545693e-01   4.542019966638001e+00   8.504629135645395e-01  7.95836120e-01  -2.89239824e+00   1.35978727e+00
C     2.661208681024106e+00   6.184105683361577e+00   9.609878672504785e-01 -9.07067790e-01   9.50899370e-01   3.77082170e-01
C     7.545679466412750e-01   6.248754299142560e+00   2.680932208015141e+00  3.11101634e+00  -6.30966590e-01  -5.29608660e-01
C     2.724261669179578e+00   4.387193119573209e+00   2.635218084314374e+00 -2.20204762e+00   2.35243905e+00   4.12118530e-01
C     3.567550051793751e+00   3.532032747088695e+00   2.872485147051520e-02 -6.06640670e-01   7.64272330e-01  -6.91112170e-01
C     5.326786482927369e+00   5.344215908686252e+00   2.252495634557740e-02 -2.22670470e-01   7.64877110e-01  -1.13826011e+00
C     3.602591021099042e+00   5.302695469994379e+00   1.766217470820267e+00 -1.23101218e+00   5.75529870e-01   1.51982303e+00
C     5.353018766006182e+00   3.540774685226771e+00   1.702680256915921e+00 -4.84461830e-01  -2.05452420e-01   2.77437064e+00
C     4.417510186626378e+00   4.463331434256030e+00   8.930191205163721e-01  2.65654207e+00  -1.89664103e+00  -1.45569337e+00
C     6.200261706292314e+00   6.245964101095758e+00   8.702485681692738e-01  3.04723910e-01  -6.67217640e-01   9.41823350e-01
C     4.478594283884562e+00   6.234979100199941e+00   2.646009025272665e+00 -5.47912580e-01  -1.66920160e-01   2.63144800e-01
C     6.216592027745691e+00   4.436258295865497e+00   2.638210659153168e+00  3.53385270e-01   8.18486700e-02  -1.61634710e-01
C     7.085910032309782e+00   3.058654735469320e-02   3.597662254107012e+00 -9.33976730e-01  -5.31706500e-02  -2.28950620e-01
C     1.767716139561242e+00   1.802392588954578e+00   3.550757540701620e+00  1.04498630e+00  -1.71326590e-01  -1.59873355e+00
C     7.169178308133139e-02   1.722042604953635e+00   5.386803108360708e+00 -8.30700950e-01   1.60993864e+00  -1.44017512e+00
C     1.761155207651434e+00   7.100193554553957e+00   5.258847946989397e+00  1.08191657e+00  -1.55494620e-01   2.65369252e+00
C     9.645227436509523e-01   9.128521882999817e-01   4.407253870133338e+00 -2.94945987e+00  -5.00666740e-01   1.67796321e+00
C     2.673786252923708e+00   2.671795325916298e+00   4.341242356483423e+00 -3.58180570e-01  -5.23005370e-01   4.01804760e+00
C     9.701404589633120e-01   2.733007374781642e+00   6.218181613211977e+00 -1.82859116e+00  -2.70612765e+00   6.13000220e-01
C     2.650217495800610e+00   7.852885588465814e-01   6.262816678359028e+00 -1.00264269e+00   3.27196790e+00  -2.22916244e+00
C     3.548997921766266e+00   7.061169949307359e+00   3.538015266649913e+00  2.69774690e-01   1.69117744e+00   9.12385300e-01
C     5.292987141801114e+00   1.752006099065685e+00   3.624617321597825e+00  1.90627377e+00   1.82583572e+00  -2.19202174e+00
C     3.496570106153587e+00   1.718954563999054e+00   5.278148238497638e+00  1.00520088e+00   1.29127959e+00   2.25466110e+00
C     5.287354356632800e+00   5.436358126055740e-02   5.331526521298837e+00  8.79298750e-01  -3.11644471e+00   2.35544956e+00
C     4.446211509218021e+00   9.103705668791137e-01   4.462259341956481e+00 -1.57366900e+00  -1.90622241e+00  -5.03036960e-01
C     6.245485988590337e+00   2.629799404835374e+00   4.468836481069863e+00 -1.40215872e+00   3.81533660e-01   9.82627480e-01
C     4.388107547059046e+00   2.671421493970712e+00   6.195726248323848e+00  1.07505303e+00  -6.58266910e-01   3.96952900e-01
C     6.253427660509853e+00   7.796359411791574e-01   6.253593357841125e+00 -3.54447670e-01   4.25850899e+00  -1.16744318e+00
C     7.083550391421072e+00   3.520138934360911e+00   3.536991511624181e+00  6.38125650e-01   7.27593010e-01   7.59121680e-01
C     1.733067697353028e+00   5.369799903622120e+00   3.454018590760683e+00  6.57583760e-01  -2.17661077e+00   3.42083982e+00
C     4.683497977948919e-02   5.336199029655416e+00   5.321188600114120e+00 -2.17160091e+00   3.68465850e-01   1.57147451e+00
C     1.817890798456060e+00   3.557319325622142e+00   5.300305760477988e+00 -3.78019150e-01   1.03239684e+00   9.46959400e-02
C     8.640129176785574e-01   4.459255180388817e+00   4.462379616467211e+00  1.50370513e+00  -1.02937549e+00  -2.68643057e+00
C     2.625893895279494e+00   6.193864197018539e+00   4.435599984846659e+00  9.95089260e-01  -1.47104850e-01  -1.92284829e+00
C     8.917767104108486e-01   6.255195809552352e+00   6.184300525225591e+00  1.64659257e+00  -1.56846798e+00   3.88061450e-01
C     2.725806400499130e+00   4.425195884247349e+00   6.206028769563919e+00 -1.49869183e+00   2.33671300e-01   2.33618340e-01
C     3.610055575692303e+00   3.514042822206225e+00   3.553216486254331e+00 -1.25694224e+00   1.63138974e+00  -1.83901477e+00
C     5.374558566060853e+00   5.394220534111999e+00   3.551420045689805e+00 -1.13995343e+00  -2.60738783e+00  -6.98467510e-01
C     3.556222353843424e+00   5.281586084929349e+00   5.254866092974578e+00 -2.89702980e-01   1.56470422e+00   2.09728162e+00
C     5.249636852958402e+00   3.562496674153193e+00   5.379311683929942e+00  3.82209878e+00   1.05263677e+00  -2.57277393e+00
C     4.461530728637931e+00   4.455652560720774e+00   4.358153436064855e+00  6.65319400e-02  -4.65405990e-01   2.68851332e+00
C     6.172695385540405e+00   6.207836512520411e+00   4.526403828405254e+00  1.67886481e+00   1.70839274e+00  -2.31882504e+00
C     4.386766969637140e+00   6.216567077182296e+00   6.254839393242185e+00  9.04738550e-01  -3.76241060e-01  -1.55239645e+00
C     6.278346449256942e+00   4.515799057035380e+00   6.250057130840355e+00 -2.85781684e+00  -3.13155164e+00  -1.25151610e-01
