64
Lattice="7.10842262195238 0 0 0 7.10842262195238 0 0 0 7.10842262195238 " PBC="1 1 1" Properties=species:S:1:pos:R:3:force:R:3 Energy="-514.13562062"
C     2.824176306926000e-03   2.051533418667720e-02   1.119711622679780e-02 -6.17709790e-01  -4.67136680e-01  -8.80550890e-01
C     1.759088789195800e+00   1.772115542320760e+00   7.106455364039914e+00  5.10541860e-01  -6.69302900e-02   3.73208340e-01
C     7.097229626658321e+00   1.792028224437713e+00   1.791780211572502e+00  4.52060490e-01   8.36683100e-02  -6.23079530e-01
C     1.762356815411119e+00   6.797926719958399e-03   1.809638843889180e+00  4.66463660e-01  -4.03289530e-01  -1.54822223e+00
C     8.941376308156291e-01   8.896886112662236e-01   8.861058951815174e-01 -8.29646150e-01   1.96643610e-01   1.01210014e+00
C     2.653997968202604e+00   2.661166243741065e+00   8.877429649109034e-01  5.25582930e-01   1.58036080e-01  -3.88316820e-01
C     8.920572798516599e-01   2.684055933251274e+00   2.683421293279761e+00 -3.36784300e-01  -1.18125780e+00  -6.39435220e-01
C     2.662957068651722e+00   9.022757795363623e-01   2.655183653095620e+00 -2.78785260e-01  -9.20114270e-01   8.49617200e-01
C     3.544885343859465e+00   2.401303353684820e-02   7.107973154437738e+00  3.03613180e-01  -1.14673790e+00   2.85357490e-01
C     5.355720108770234e+00   1.773945321387374e+00   7.101535482576161e+00 -7.80516030e-01   5.67383870e-01   6.96607580e-01
C     3.534459562571163e+00   1.771211564216175e+00   1.788378120506570e+00  9.79838440e-01   7.35416860e-01  -4.57392710e-01
C     5.336765997443587e+00   7.104741310093554e+00   1.796310480392454e+00 -8.33266690e-01   9.03137960e-01  -1.08241647e+00
C     4.438584242830987e+00   9.026712921709391e-01   9.002386477819229e-01  5.69036900e-02  -3.64634200e-01  -3.84269010e-01
C     6.229980741750461e+00   2.680239918736179e+00   8.928757436321269e-01  3.83421810e-01  -2.09235950e-01  -5.91591050e-01
C     4.456837321518850e+00   2.646405106581051e+00   2.683099494987753e+00 -7.17065230e-01   1.31332345e+00  -5.09099230e-01
C     6.191029571330362e+00   9.152122556940478e-01   2.657012721319973e+00  1.43947868e+00  -1.05250886e+00   8.00755090e-01
C     9.748775117972799e-03   3.565374519050900e+00   7.081378483973758e+00 -3.32855070e-01   8.74666400e-02   1.20351074e+00
C     1.770345900509511e+00   5.285566446175419e+00   3.023212140286000e-04  4.43218090e-01   2.45165047e+00  -7.13169970e-01
C     7.622006154295000e-03   5.346488968987449e+00   1.790841686533983e+00 -2.00910050e-01  -2.01138020e-01  -5.24246310e-01
C     1.779931608412581e+00   3.558744351104774e+00   1.777605874699769e+00 -4.07678770e-01  -1.19152330e-01   3.38185300e-02
C     9.031900648537466e-01   4.465628236688778e+00   8.854520624689297e-01 -8.90178550e-01  -1.02753205e+00   2.61242580e-01
C     2.645762505176203e+00   6.244560685217891e+00   8.520770230888629e-01  4.84484600e-01  -1.09933500e+00   1.74344138e+00
C     8.905832773371768e-01   6.202777377057531e+00   2.695453578080182e+00 -3.64321840e-01   1.15580316e+00  -8.81866220e-01
C     2.626965418905232e+00   4.437135546301032e+00   2.678438004686236e+00  1.66902081e+00   1.23193525e+00  -7.90453100e-01
C     3.565228440966059e+00   3.542935290282120e+00   7.065525422015086e+00  3.57390440e-01  -3.21176230e-01   1.55897627e+00
C     5.327355938663458e+00   5.294968045932630e+00   7.107902567801120e+00 -1.91976840e-01   1.47716415e+00  -9.21308000e-02
C     3.557690953956716e+00   5.343998817459437e+00   1.782937760338579e+00 -6.70061490e-01  -3.81057160e-01  -9.64420560e-01
C     5.367371595370902e+00   3.561952595485859e+00   1.775777446233453e+00 -1.11060379e+00  -6.89757670e-01   3.45605740e-01
C     4.453656373480626e+00   4.421691218643010e+00   8.893916213691601e-01 -4.54719520e-01   3.54478010e-01   4.70851900e-02
C     6.185561630482606e+00   6.245676636485005e+00   8.837889048285283e-01  1.52581752e+00  -1.05781568e+00   3.31280300e-01
C     4.446921285216629e+00   6.232949005783895e+00   2.644907006513886e+00 -2.41827510e-01  -6.50592050e-01   1.07825286e+00
C     6.247075929477752e+00   4.437444904853454e+00   2.681036559659203e+00 -8.61573390e-01   6.46704020e-01  -7.32800610e-01
C     1.156583010809720e-02   3.089960228687800e-03   3.549790084383038e+00 -1.17719615e+00  -3.79921420e-01   6.76810400e-01
C     1.770037181715124e+00   1.743638703715457e+00   3.562089503705520e+00 -3.11082900e-02   1.54784814e+00  -1.22898720e-01
C     7.094775728085671e+00   1.806935581851020e+00   5.344871731757173e+00  8.50269860e-01  -1.15197738e+00  -7.32441600e-01
C     1.821431006173498e+00   7.104756095612604e+00   5.319154098476049e+00 -2.12875108e+00  -3.88125500e-01   7.83401740e-01
C     8.757480704134630e-01   8.547627984073776e-01   4.460681272134840e+00  8.31887310e-01   1.43342222e+00  -4.19127790e-01
C     2.646145720239648e+00   2.679252914255393e+00   4.414181596650337e+00  1.12882775e+00  -9.98238430e-01   1.65381639e+00
C     8.913600857610903e-01   2.674913577667013e+00   6.224074424479729e+00 -4.55999480e-01  -7.29530240e-01   2.58774700e-01
C     2.655927051933220e+00   8.667621712110686e-01   6.239266900724324e+00  7.84849550e-01   1.48838570e+00  -9.97448990e-01
C     3.544393867519518e+00   7.104336911930702e+00   3.539454366809332e+00  7.22883940e-01   3.32212030e-01   5.18998910e-01
C     5.335609101662182e+00   1.777123639309228e+00   3.576134325118116e+00 -2.64106010e-01  -1.23891190e-01  -3.27237040e-01
C     3.589855855469954e+00   1.770013795004705e+00   5.350463074821613e+00 -1.40648357e+00   1.01969620e-01  -8.50743840e-01
C     5.341476038271599e+00   1.080593973001920e-02   5.336533409855461e+00 -7.93251500e-02  -9.99721260e-01   5.05499460e-01
C     4.461261461589085e+00   8.819532968553657e-01   4.483654912116193e+00 -7.61615460e-01  -8.77164000e-02  -1.62962250e+00
C     6.238853617033199e+00   2.667935807854769e+00   4.426328184886488e+00 -7.05896270e-01   7.08521800e-02   6.12138830e-01
C     4.487286036558941e+00   2.647266647402595e+00   6.192452748623112e+00 -1.29697116e+00   5.57159250e-01   9.67814990e-01
C     6.214410808264745e+00   9.168304881034911e-01   6.205427397010268e+00  6.07172170e-01  -7.81081170e-01   9.69708200e-01
C     7.102244476648279e+00   3.556074214316023e+00   3.560341542583262e+00  5.98795770e-01  -4.38858650e-01  -3.86398840e-01
C     1.754833331994337e+00   5.333899241685168e+00   3.570347998021209e+00  4.57408800e-01  -1.04713039e+00  -1.62546550e-01
C     8.617469657999800e-03   5.330920315017804e+00   5.317893988398201e+00 -8.64228150e-01  -3.32323340e-01   1.48722030e-01
C     1.763765846942856e+00   3.521368691474171e+00   5.367926976430203e+00  7.83086000e-01   9.86837940e-01  -2.20561471e+00
C     8.750876979520650e-01   4.399996952564805e+00   4.425337270773261e+00  4.92921330e-01   1.65048216e+00   1.68994569e+00
C     2.666202561167335e+00   6.207321009712009e+00   4.435439192326995e+00  4.50420700e-02   4.40833040e-01  -3.52116860e-01
C     8.544734145225173e-01   6.227312524235818e+00   6.200501686639964e+00  1.80381820e+00  -7.64954680e-01   6.95989550e-01
C     2.678196673738287e+00   4.425444394702144e+00   6.211612933121512e+00 -4.92257770e-01   3.03158950e-01  -3.46126540e-01
C     3.551380380691585e+00   3.602548654900226e+00   3.543501831564934e+00 -3.08546520e-01  -2.14860607e+00   1.49627130e-01
C     5.330730022544267e+00   5.328461724886225e+00   3.551896878679154e+00  3.35611560e-01   2.01050570e-01   2.23333700e-02
C     3.551740564465740e+00   5.345343731019141e+00   5.296051085203013e+00  3.31425880e-01  -9.19741000e-01   1.23794570e+00
C     5.332924108270156e+00   3.545696770301538e+00   5.315791743492563e+00  3.80394760e-01   3.12140590e-01  -3.55863540e-01
C     4.451183424335354e+00   4.438752214857498e+00   4.424914035290466e+00 -4.73084690e-01   5.43694000e-01   2.78366450e-01
C     6.216377708803699e+00   6.203634084151694e+00   4.464381916950813e+00  1.07592650e-01   8.34246230e-01  -1.27130134e+00
C     4.435242928778456e+00   6.205544614899271e+00   6.227043399355425e+00  1.05814630e-01   6.46815590e-01  -3.24803030e-01
C     6.210039199437671e+00   4.443427637667351e+00   6.197062773944861e+00  6.30660710e-01  -1.73127330e-01   4.68039620e-01
