64
Lattice="7.10842262195238 0 0 0 7.10842262195238 0 0 0 7.10842262195238 " PBC="1 1 1" Properties=species:S:1:pos:R:3:force:R:3 Energy="-507.86292631"
C     5.484148051330000e-04   7.106747164788466e+00   5.494170927224200e-02  2.62812660e-01   7.25382140e-01  -1.67845153e+00
C     1.753309428353062e+00   1.824566389222728e+00   7.062561849540582e+00  2.91501151e+00  -2.67972239e+00   3.01471882e+00
C     1.621132645871960e-02   1.793558241322442e+00   1.810412808944046e+00 -9.77680720e-01  -2.88310460e-01  -9.21689740e-01
C     1.707318289422793e+00   5.320007464611579e-02   1.892942377488734e+00  1.17292565e+00  -1.40650183e+00  -3.90453016e+00
C     9.171664321565122e-01   9.016264251300253e-01   9.096451523507425e-01 -1.60750693e+00   1.06888801e+00   6.02729800e-01
C     2.750098723960718e+00   2.635214316850385e+00   9.007478951784196e-01 -3.39745705e+00   1.86577873e+00  -1.19030027e+00
C     8.781446040155698e-01   2.699703490712002e+00   2.659438825960179e+00  2.78255630e-01  -1.27979304e+00   7.36059480e-01
C     2.687898675435420e+00   8.624376912259654e-01   2.716633763034508e+00 -2.19769337e+00   1.13296647e+00  -2.39574780e-01
C     3.540315836546650e+00   7.031230055158407e+00   1.052586787879120e-02 -1.49168834e+00   1.99901858e+00   2.16901495e+00
C     5.336491470162002e+00   1.805099476288274e+00   7.037440186411918e+00  1.49639175e+00  -2.53241435e+00   3.58801704e+00
C     3.535106429029583e+00   1.770487642456554e+00   1.795619968219147e+00  1.70079107e+00  -1.22147663e+00   1.06654293e+00
C     5.315650499135104e+00   2.580698615345760e-02   1.835002975313412e+00 -6.73273510e-01   8.04227110e-01  -9.38215610e-01
C     4.376442412286947e+00   8.271457946021894e-01   9.371045624264454e-01  1.57881591e+00   2.14042623e+00  -1.18893074e+00
C     6.288287578291012e+00   2.652247803469334e+00   8.372849642904525e-01 -2.67048391e+00  -2.66400820e-01   1.59982380e+00
C     4.529016173718103e+00   2.665952913364920e+00   2.676022349427281e+00 -2.09854346e+00   3.45959240e-01  -9.75323240e-01
C     6.148509048660082e+00   9.214253014008328e-01   2.760636533989511e+00  3.12384759e+00  -5.87149910e-01  -2.40265167e+00
C     2.092932872006600e-03   3.558256571144589e+00   5.884181642693120e-02  1.39298121e+00   7.19578200e-01  -3.63028044e+00
C     1.767095503182290e+00   5.338452328541729e+00   7.045700386749037e+00 -3.27380740e-01  -5.69100840e-01   1.54702415e+00
C     2.315547343197140e-02   5.362296679209805e+00   1.773292412769727e+00 -2.98644925e+00  -5.37061890e-01  -3.93261570e-01
C     1.752234137263334e+00   3.609400961053228e+00   1.769404247765040e+00  1.77420056e+00  -2.84221187e+00   1.34263250e-01
C     8.673251582825726e-01   4.447669517781610e+00   9.222470350557048e-01  1.15023138e+00   1.13346695e+00  -2.29519954e+00
C     2.553538398778133e+00   6.221206815710596e+00   9.172257874853892e-01  2.91997664e+00  -5.72283880e-01   1.07470500e-01
C     7.318359930290032e-01   6.262065957846129e+00   2.675497392416794e+00  5.35903607e+00  -1.09725612e+00  -2.97199930e-01
C     2.667433455628214e+00   4.393100147686202e+00   2.633017316671222e+00  3.90712350e-01   2.94789813e+00   2.68315100e-01
C     3.652785014903385e+00   3.490148712579809e+00   7.102831419104013e+00 -3.04288966e+00   2.43768390e+00  -1.06218506e+00
C     5.396239681557210e+00   5.321833973803789e+00   7.066263844956851e+00 -3.15670045e+00   2.60081697e+00   4.84616150e-01
C     3.552315138266115e+00   5.344373004826154e+00   1.772641707763092e+00 -1.59420740e-01  -8.35897700e-01  -7.16613020e-01
C     5.369027786757136e+00   3.572957997554595e+00   1.688076997822298e+00 -6.14749350e-01  -9.04854070e-01   2.04712945e+00
C     4.440427598984806e+00   4.452232485345613e+00   7.820544398071601e-01  1.80906328e+00   3.33373260e-01   3.32978011e+00
C     6.167604688681093e+00   6.325142972470056e+00   8.649936667474388e-01  1.75250502e+00  -4.38426423e+00   2.33093277e+00
C     4.485040130432153e+00   6.262623044926859e+00   2.724678364913562e+00 -2.09492133e+00  -1.94717139e+00  -1.95453147e+00
C     6.239760722843736e+00   4.391112419468972e+00   2.642225140827813e+00 -1.36801240e+00   3.72515011e+00  -5.61422700e-01
C     7.094578753694871e+00   1.053020401658940e-02   3.551650429666919e+00 -2.04927171e+00   9.28167280e-01   2.96422343e+00
C     1.776146017946300e+00   1.755491003255140e+00   3.638775806688116e+00  1.34361499e+00   2.51090932e+00  -4.32405071e+00
C     4.142106294364480e-02   1.713284388527759e+00   5.355967339708958e+00 -7.63307700e-02   2.39690544e+00  -5.26168500e-02
C     1.795494149138773e+00   7.094042565376644e+00   5.275652755652661e+00 -1.74741004e+00  -3.64482100e-02   3.10276354e+00
C     9.391380688853488e-01   9.238605048219923e-01   4.459026644601583e+00 -1.81603755e+00  -2.62526351e+00   1.72369480e-01
C     2.687117815210613e+00   2.688805496909053e+00   4.368634023291556e+00 -2.50475760e-01  -1.72142860e+00   3.66950654e+00
C     9.597352210163823e-01   2.680594913361823e+00   6.186007115328201e+00 -2.78535769e+00  -3.65954820e-01   1.38520916e+00
C     2.647986304108644e+00   8.306059614809268e-01   6.290671174563951e+00  4.89660050e-01   9.08057140e-01  -3.43516605e+00
C     3.497136931773305e+00   7.047815000310035e+00   3.552563080047100e+00  2.85646172e+00   2.11446799e+00   9.68788190e-01
C     5.371316841009229e+00   1.802987279590968e+00   3.658030675375814e+00 -1.79918805e+00  -1.98209390e-01  -2.93160311e+00
C     3.527666256325908e+00   1.688201537386601e+00   5.343750662425773e+00  7.79278360e-01   3.55389888e+00   3.69967360e-01
C     5.337781862120211e+00   6.654350799879639e-02   5.393587955583045e+00 -1.09705577e+00  -3.39254398e+00  -1.28164934e+00
C     4.444061922217733e+00   9.300847107522905e-01   4.459642020747797e+00 -4.79366080e-01  -2.18351137e+00   1.17551935e+00
C     6.293385738994075e+00   2.655126998967339e+00   4.440988666782202e+00 -2.55261834e+00  -4.26570910e-01   2.26068415e+00
C     4.490991088596937e+00   2.668084800392884e+00   6.236866599658230e+00 -1.17633298e+00  -1.33359961e+00  -2.59842015e+00
C     6.229934537003431e+00   8.267024422833800e-01   6.261414186576101e+00  7.09534200e-01   3.73534044e+00  -7.38046200e-01
C     7.025770004659759e+00   3.538595811525289e+00   3.534747524771499e+00  4.47439684e+00   2.05589890e-01   6.14660980e-01
C     1.743172604444263e+00   5.343597902423669e+00   3.476222104235385e+00 -1.01559873e+00  -1.13961054e+00   2.10316163e+00
C     3.361857393902800e-02   5.283080275364073e+00   5.294134085790851e+00 -1.73639006e+00   2.25390072e+00   1.75554569e+00
C     1.781353079683903e+00   3.534612109320588e+00   5.309872773229567e+00  1.19994877e+00   8.52768520e-01  -1.12937551e+00
C     8.880849511231517e-01   4.419828101074308e+00   4.457659979268662e+00 -3.46084900e-01   1.98182110e-01  -2.61749824e+00
C     2.592267217738679e+00   6.184956774801870e+00   4.415681615991609e+00  1.18999526e+00   4.30860930e-01  -1.53291741e+00
C     8.373991255577298e-01   6.225440592223068e+00   6.194682305377875e+00  1.96788364e+00  -6.70617190e-01   1.52693330e-01
C     2.714962359623867e+00   4.448974908511546e+00   6.112451006246323e+00 -2.38048880e+00  -1.97880066e+00   3.38725574e+00
C     3.589784984496433e+00   3.559566724517682e+00   3.534593769590229e+00 -1.77808600e-02  -7.02321300e-01  -1.47526192e+00
C     5.364645302043454e+00   5.405907207404636e+00   3.572729177430457e+00 -1.06336023e+00  -3.20341945e+00  -3.99527450e-01
C     3.449038856378469e+00   5.272402002904309e+00   5.193687595864001e+00  4.60554408e+00   1.92244412e+00   2.72302377e+00
C     5.324677413936016e+00   3.536168071947880e+00   5.313054289941601e+00  1.28383765e+00   1.45873985e+00   1.42690910e-01
C     4.460781714146462e+00   4.452147966200662e+00   4.381591966885554e+00 -7.76557890e-01  -8.12066700e-02   9.27693720e-01
C     6.181807103823174e+00   6.198888785547486e+00   4.530033886584609e+00  1.99972750e+00   1.71698964e+00  -2.33473442e+00
C     4.451018722183249e+00   6.252569460646940e+00   6.262774169991761e+00 -6.39254490e-01  -1.71106903e+00  -2.58492629e+00
C     6.231976928990609e+00   4.500702189075025e+00   6.184847376177748e+00  6.97366240e-01  -3.45216708e+00   8.80258060e-01
