64
Lattice="7.10842262195238 0 0 0 7.10842262195238 0 0 0 7.10842262195238 " PBC="1 1 1" Properties=species:S:1:pos:R:3:force:R:3 Energy="-511.88417897"
C     1.267701873205560e-02   7.048884675745891e+00   7.081464140466328e+00  3.09717180e-01   1.30013027e+00   1.19757423e+00
C     1.787850675548166e+00   1.785620763372272e+00   2.807386212697560e-02 -3.69434510e-01  -5.40133750e-01  -8.58064870e-01
C     1.310259999431500e-02   1.719445898170548e+00   1.804000087645865e+00 -6.94787890e-01   1.74700928e+00  -1.72158054e+00
C     1.769824710963013e+00   7.087454123871297e+00   1.832056178716291e+00 -5.28752020e-01   4.91068530e-01  -1.29654989e+00
C     8.973950654812440e-01   8.470211575003880e-01   8.858493522091615e-01 -2.29692700e-02   6.13132870e-01   6.43011090e-01
C     2.650352982335747e+00   2.680413435332334e+00   8.943668774451242e-01 -1.24565295e+00  -3.04725350e-01   1.04230017e+00
C     8.129945601029720e-01   2.684506749413835e+00   2.653457159409675e+00  2.15548883e+00  -1.27496292e+00   1.28983027e+00
C     2.643685921676223e+00   8.898518206495787e-01   2.684695620202848e+00  1.61903080e-01   5.30833120e-01  -6.44391370e-01
C     3.554403379579192e+00   3.039390910169120e-02   7.101576853595809e+00 -5.88356520e-01  -5.64219100e-01   1.48572883e+00
C     5.330596810704368e+00   1.817776850441461e+00   7.057674169231296e+00  7.60555280e-01   1.59386420e-01   1.38581482e+00
C     3.534479110733368e+00   1.804445714659913e+00   1.761630263535129e+00  1.10312462e+00  -3.42342020e-01   8.75850890e-01
C     5.324085851005578e+00   7.537110262944340e-02   1.715835388153398e+00 -2.61071970e-01  -1.41172710e+00   7.53097570e-01
C     4.435780894202338e+00   9.921848148555511e-01   8.167569060272856e-01 -9.31205400e-02  -2.28956507e+00   1.85427539e+00
C     6.257192281129405e+00   2.691831765671066e+00   8.377664888387314e-01 -1.11411775e+00  -1.93551605e+00   2.17974150e+00
C     4.530384900493585e+00   2.625808665292280e+00   2.708823596933462e+00 -2.68844364e+00   1.53822470e+00  -1.84870006e+00
C     6.227661689954912e+00   8.720178545593917e-01   2.702270199951632e+00 -5.95945930e-01   1.07354909e+00  -1.45229586e+00
C     7.102980838147485e+00   3.548986832626979e+00   7.075428805325044e+00  8.19544430e-01   4.68324140e-01   9.69998520e-01
C     1.854806543143148e+00   5.350184851160265e+00   7.089312976386427e+00 -1.99446054e+00  -9.06108800e-01   1.24162331e+00
C     7.065175474369504e+00   5.361993149563931e+00   1.800187271920950e+00  5.08373460e-01  -1.03338082e+00  -1.01362302e+00
C     1.702300098474204e+00   3.587095939303513e+00   1.800532314754924e+00  1.16493306e+00  -1.03259294e+00  -1.10585273e+00
C     8.241928136773891e-01   4.455350239506746e+00   9.003837306875970e-01  2.13382476e+00   7.90919570e-01  -9.71713840e-01
C     2.680230109112964e+00   6.211919163967982e+00   9.903162238014318e-01  1.50425140e-01   1.38370070e-01  -3.19976481e+00
C     8.103377871487469e-01   6.238823192984385e+00   2.670093996046428e+00  2.09158400e+00  -1.39814300e-02   8.93610030e-01
C     2.649638514778211e+00   4.416693855372698e+00   2.663428854661011e+00  3.74905230e-01   8.89233610e-01   1.68529480e-01
C     3.488903245852559e+00   3.492836478256658e+00   7.105204139490342e+00  2.74093431e+00   2.29568534e+00  -6.15086190e-01
C     5.301952355493684e+00   5.316070109322362e+00   7.068738642292004e+00  7.18771200e-02   1.41891900e-01   1.12336356e+00
C     3.559580870278695e+00   5.312335557330493e+00   1.814641111971100e+00  3.79894700e-01  -4.27222700e-02  -1.30340506e+00
C     5.387167059598852e+00   3.543496642416422e+00   1.829599365690366e+00 -4.59643070e-01  -6.76555100e-02  -1.89983750e+00
C     4.457566716763888e+00   4.406618092814204e+00   8.873964293081784e-01 -1.02799827e+00   6.33498910e-01   6.47901290e-01
C     6.195621967764013e+00   6.226277395733894e+00   8.539549972608408e-01 -1.20735620e-01  -4.75041640e-01   6.41286970e-01
C     4.445449557397383e+00   6.257515998695520e+00   2.617256664206610e+00  4.06007600e-01  -5.17735150e-01   7.55137020e-01
C     6.276059954036993e+00   4.420413479677065e+00   2.725204530355894e+00 -2.30693920e+00   1.66479540e+00  -1.68241755e+00
C     7.054017099045985e+00   2.150049047758300e-02   3.595316545726638e+00  1.48000751e+00  -9.37387480e-01   5.88940350e-01
C     1.740219836772141e+00   1.771542319120683e+00   3.561424439685192e+00  3.16778070e-01   7.28519240e-01  -3.63494630e-01
C     5.399436978967460e-02   1.747726828648445e+00   5.396916687727539e+00 -1.51990717e+00   7.83618750e-01  -4.89672620e-01
C     1.822519590013525e+00   7.093983067879315e+00   5.345723391871275e+00 -1.10773197e+00  -2.09914620e-01  -9.67745280e-01
C     8.976688819205666e-01   9.093739660277895e-01   4.506221737071002e+00 -8.76801000e-03  -1.55760347e+00  -1.76467684e+00
C     2.638508999650529e+00   2.656109454057649e+00   4.401051487060483e+00  8.04732050e-01   5.33119160e-01   7.63827870e-01
C     9.409800033546432e-01   2.691088651170372e+00   6.205939629944265e+00 -1.51043103e+00  -4.91033640e-01   9.36809090e-01
C     2.650742168474192e+00   8.678368225427602e-01   6.240854495832275e+00  9.88973750e-01   9.23984030e-01  -8.18897890e-01
C     3.560004745519526e+00   3.085218910800260e-02   3.530909118725152e+00  3.16400710e-01  -1.34711271e+00   8.93655100e-02
C     5.377444514560347e+00   1.776631665379698e+00   3.584323370144808e+00 -5.24759590e-01  -1.02661861e+00   3.30661290e-01
C     3.546036837239678e+00   1.750895052610179e+00   5.291182810887480e+00 -1.61708620e-01   1.27467551e+00   9.69024020e-01
C     5.277930507512788e+00   2.500209946019500e-02   5.391487558867288e+00  1.36833825e+00  -7.41795580e-01  -2.22534915e+00
C     4.460201382523765e+00   8.857639089692692e-01   4.417867029441902e+00 -9.12616800e-01   2.61633410e-01   1.22893154e+00
C     6.233751262360788e+00   2.611625158554368e+00   4.527350243792880e+00  6.67921270e-01   1.66046652e+00  -1.70446101e+00
C     4.440216407748766e+00   2.685259104863935e+00   6.214898090635346e+00 -7.78534900e-01  -6.71708610e-01  -1.53590415e+00
C     6.222593029205721e+00   8.666405461000404e-01   6.261137029178148e+00  3.44906450e-01   4.72153490e-01  -1.04379305e+00
C     7.096439170062977e+00   3.551537832252618e+00   3.603835137225993e+00  6.67784320e-01  -4.61654010e-01  -4.24092130e-01
C     1.775078830458359e+00   5.353960347666427e+00   3.534668905617322e+00 -1.03523167e+00  -5.94498700e-01  -3.22787380e-01
C     7.106113591080345e+00   5.306267168024025e+00   5.345456257349216e+00  1.74551380e-01   1.26619565e+00  -5.65291090e-01
C     1.742137973531922e+00   3.603192749073824e+00   5.282713125335749e+00  1.77295883e+00  -1.68529561e+00   6.39226790e-01
C     8.908703154425724e-01   4.491615492439879e+00   4.417922830559469e+00 -6.17396410e-01  -1.39799887e+00   7.16275520e-01
C     2.675177513398895e+00   6.183679817762413e+00   4.384028520907012e+00  6.48392670e-01   1.32368601e+00   1.27258259e+00
C     9.563203347897341e-01   6.204767522138452e+00   6.210697439372283e+00 -1.68775073e+00  -2.79843270e-01   1.13779490e-01
C     2.682835132750515e+00   4.416444705159867e+00   6.156930112601091e+00 -2.81323410e-01   4.31857660e-01   1.52032029e+00
C     3.570150597125052e+00   3.531823261874083e+00   3.522214664850177e+00  5.02113610e-01  -2.01918990e-01   1.05484596e+00
C     5.371234098969931e+00   5.371772988488753e+00   3.519597699062624e+00 -1.16559793e+00  -8.74978290e-01   1.15397942e+00
C     3.570713655280782e+00   5.256159328301835e+00   5.251865769955129e+00  1.35701630e-01   2.56655478e+00   1.62775027e+00
C     5.352978461249926e+00   3.584636496161219e+00   5.308606692076719e+00 -5.13706570e-01  -2.45503890e+00   1.24418190e+00
C     4.529726731643199e+00   4.431206624246368e+00   4.429663527864019e+00 -2.71643994e+00   6.74180990e-01  -1.79519519e+00
C     6.164096042360087e+00   6.231197845871458e+00   4.474760071807561e+00  1.59127048e+00   2.29201770e-01   3.30818840e-01
C     4.387107889585995e+00   6.257303243606503e+00   6.213030423676167e+00  7.77356520e-01  -2.25413705e+00  -6.76336400e-02
C     6.205704127902863e+00   4.394064191961927e+00   6.208219727583855e+00  7.81996930e-01   2.35448488e+00  -2.58777200e-02
