64
Lattice="7.10842262195238 0 0 0 7.10842262195238 0 0 0 7.10842262195238 " PBC="1 1 1" Properties=species:S:1:pos:R:3:force:R:3 Energy="-513.58018763"
C     7.093483203600677e+00   5.837649908222600e-03   7.092892067175598e+00  8.91464900e-01  -4.00890490e-01   1.21272780e-01
C     1.768325118127097e+00   1.788187046106544e+00   7.975721263866201e-03  2.24183020e-01  -3.28326670e-01  -9.36614020e-01
C     1.216364845043920e-02   1.776014369959378e+00   1.753706433756389e+00 -4.25033480e-01  -4.86271600e-01   2.90738690e-01
C     1.796007092915032e+00   7.095226473164005e+00   1.763933108127104e+00 -7.97374190e-01   3.55231590e-01   3.54350500e-02
C     8.922613626650803e-01   8.941325127513429e-01   8.536613483224086e-01 -3.90752100e-02  -4.38826470e-01   1.06653238e+00
C     2.634141655877027e+00   2.657844691103417e+00   9.031491203394555e-01  4.36451820e-01   8.50313900e-02   3.24990080e-01
C     8.293914874762998e-01   2.676086893904671e+00   2.670230904266089e+00  1.43157622e+00  -9.59487350e-01   7.73374190e-01
C     2.655675413772472e+00   8.759634556188490e-01   2.655655510189136e+00  2.26668200e-01   5.76718030e-01   1.80370430e-01
C     3.561444556521207e+00   1.016454675701660e-02   2.213562803868000e-03 -6.84166850e-01  -1.70826990e-01   2.87949370e-01
C     5.316815853939426e+00   1.773140434694112e+00   7.086377624349725e+00  5.00356370e-01   7.56917070e-01   6.41751440e-01
C     3.548840967794816e+00   1.760298927062629e+00   1.758860750998151e+00 -1.24661990e-01   7.55524210e-01   9.98897040e-01
C     5.334033448704233e+00   2.552222274330040e-02   1.764202375175950e+00 -4.66231650e-01  -1.23176558e+00   3.45687280e-01
C     4.428290891456097e+00   8.908080456604213e-01   8.889309244991578e-01  7.42801410e-01   4.23185580e-01  -4.91501160e-01
C     6.261470982872836e+00   2.663425442618153e+00   8.444754891917136e-01 -2.10373993e+00  -6.89695750e-01   1.64862752e+00
C     4.465132850716389e+00   2.649601622064813e+00   2.674701746672938e+00 -3.69012350e-01   2.99013390e-01  -6.90526060e-01
C     6.248799579794650e+00   8.280715955642182e-01   2.663765154135163e+00 -3.39936220e-01   2.77654598e+00  -7.82650660e-01
C     7.104260283134859e+00   3.540361614788323e+00   7.097657411531594e+00  3.53554580e-01   3.11988220e-01   1.31331530e-01
C     1.823917532405974e+00   5.349692521809605e+00   1.072362419607960e-02 -1.62659855e+00  -7.07796000e-01   1.83856590e-01
C     7.095632079758703e+00   5.346713666226467e+00   1.820153622628684e+00  1.32343750e-01  -1.01743069e+00  -1.77138832e+00
C     1.742254054073307e+00   3.557171186094742e+00   1.828682805677744e+00  3.64363480e-01  -3.03294300e-02  -1.06136841e+00
C     8.478028707359093e-01   4.429938126229829e+00   9.212798630740276e-01  1.51136698e+00   1.04630210e+00  -9.20727030e-01
C     2.695122183417638e+00   6.220173322145873e+00   9.222247856929042e-01 -7.83329800e-02  -3.39046720e-01  -1.22427762e+00
C     8.853147988281376e-01   6.216800020191553e+00   2.640150760938844e+00  1.01438058e+00  -2.17810260e-01   7.91734250e-01
C     2.650434658111651e+00   4.447765836908110e+00   2.710601911020307e+00  9.97378520e-01  -4.31237190e-01  -1.54472787e+00
C     3.522257173217445e+00   3.502076432483491e+00   4.942912753043200e-03  4.62193950e-01   2.25456583e+00  -4.50752100e-02
C     5.332616384654936e+00   5.342763018186949e+00   7.090366160281807e+00 -8.15564540e-01  -8.25998250e-01   3.59101060e-01
C     3.581388444613462e+00   5.323650175783198e+00   1.796668531639823e+00 -8.95862690e-01   2.00345320e-01   1.31467500e-02
C     5.362021227833280e+00   3.550256396906911e+00   1.795057194400322e+00 -1.05085720e-01  -2.28419540e-01  -8.28567830e-01
C     4.444194920804954e+00   4.426566388128484e+00   8.911186837289151e-01  7.07622900e-02   1.98350470e-01   2.23775080e-01
C     6.189861017735860e+00   6.219253989848429e+00   8.839250311217014e-01  1.06934530e+00   6.70350000e-02   9.91910300e-02
C     4.445340514194393e+00   6.243907634431792e+00   2.678719000632405e+00  4.57121360e-01  -6.74133900e-01  -7.78578380e-01
C     6.269561931667371e+00   4.423721455227509e+00   2.713854227621636e+00 -2.93721132e+00   1.64912855e+00  -1.46659265e+00
C     1.354232701758820e-02   7.069143680212892e+00   3.514205462915771e+00 -1.06316180e-01   7.33262930e-01   2.15736197e+00
C     1.755459797279838e+00   1.739432365714298e+00   3.559910487835585e+00 -1.84105690e-01   1.49784701e+00  -3.33094230e-01
C     4.213375339552600e-03   1.740789008171325e+00   5.330841553695175e+00  2.57287670e-01   1.33091942e+00   1.44863480e-01
C     1.826977921596563e+00   7.095198181641978e+00   5.332784996439482e+00 -1.19029026e+00   7.60684100e-02  -6.39987110e-01
C     9.124191431939714e-01   8.615042131675070e-01   4.467544027669094e+00 -8.24372610e-01  -2.83848230e-01  -1.39472691e+00
C     2.608794229245953e+00   2.672245075815466e+00   4.427902842665270e+00  1.83527942e+00  -1.03079300e-02   5.47226110e-01
C     9.052957218022432e-01   2.663944499637866e+00   6.214870581039807e+00 -1.04147811e+00   4.36225790e-01  -9.36378500e-02
C     2.649692823127027e+00   8.948080261529214e-01   6.210697439372283e+00  1.61280210e+00  -7.61284000e-03   5.82571810e-01
C     3.569683929180049e+00   4.111376583378220e-02   3.545612180072360e+00 -4.27533300e-02  -1.40622705e+00  -5.93585200e-02
C     5.373438349740167e+00   1.774767126126472e+00   3.557894254843648e+00 -4.33500890e-01  -4.73811300e-02  -5.10651600e-01
C     3.569670991850881e+00   1.781484443333920e+00   5.332756207327871e+00 -1.27917154e+00   6.28112660e-01  -8.20178200e-01
C     5.304495749107121e+00   3.391535058341300e-02   5.361896617184752e+00  8.46161380e-01  -8.37334670e-01  -2.08072558e+00
C     4.481400475882260e+00   9.219636933300716e-01   4.408820068889201e+00 -1.48508108e+00  -4.63887700e-01   1.74944650e+00
C     6.219847543137200e+00   2.676757431410416e+00   4.460483231480647e+00  2.75400550e-01  -6.59188970e-01  -1.80705430e-01
C     4.417086453554000e+00   2.682822124337121e+00   6.221220606050478e+00  7.23261400e-01  -9.34330550e-01  -3.46089820e-01
C     6.209794243194186e+00   8.915232951444456e-01   6.213330043689600e+00 -6.82748500e-02  -1.23804440e-01   2.36430770e-01
C     7.069152281404262e+00   3.576151811837761e+00   3.588909724419232e+00  2.29266084e+00  -1.02054501e+00  -1.44526000e-01
C     1.797832820180753e+00   5.334555349092993e+00   3.569780319390777e+00 -1.04861339e+00   4.72180220e-01  -1.11447202e+00
C     2.567348997665400e-03   5.314671385003424e+00   5.342547277560433e+00 -1.27412870e-01   1.25040419e+00  -4.72972340e-01
C     1.732322165988643e+00   3.612605509054550e+00   5.326675804787175e+00  1.20360076e+00  -2.32731303e+00  -1.33635160e-01
C     8.981324932438430e-01   4.483496962965576e+00   4.439682209788872e+00 -1.24587898e+00  -8.82449390e-01   3.77476310e-01
C     2.686364820002476e+00   6.198160385481615e+00   4.405265644326524e+00  1.82574460e-01   1.49489774e+00   1.17404618e+00
C     9.382938726149975e-01   6.232191105764151e+00   6.196009092459899e+00 -1.60014335e+00  -7.38606240e-01   1.39707442e+00
C     2.650920021208144e+00   4.444028086126061e+00   6.196466945960853e+00  4.50260790e-01  -1.02796630e-01   1.10179092e+00
C     3.552696078634321e+00   3.551391896336229e+00   3.551406468602600e+00  6.68253800e-02  -3.93664420e-01   6.63002320e-01
C     5.332268782788818e+00   5.338613831903656e+00   3.552534575272394e+00 -8.13197200e-02   3.46259500e-02   6.44676790e-01
C     3.534020190969021e+00   5.306858162280651e+00   5.292050891457834e+00  1.21857483e+00   1.15530722e+00   1.43565810e+00
C     5.338582554844128e+00   3.576237112909201e+00   5.322467618596136e+00 -9.47581460e-01  -1.27027631e+00   8.24843630e-01
C     4.465341482920286e+00   4.453243374126404e+00   4.465870776068572e+00 -9.59747830e-01  -4.41084900e-01  -1.52993491e+00
C     6.187837889573983e+00   6.228354263570780e+00   4.439281294753105e+00  1.25581304e+00  -4.00147050e-01   6.60137740e-01
C     4.422232240688619e+00   6.258152131435784e+00   6.214287903637645e+00  1.27226930e-01  -1.46968865e+00  -1.30449230e-01
C     6.200887460735552e+00   4.399839785340677e+00   6.214658394624600e+00  1.23248425e+00   2.12801691e+00   3.40193450e-01
