64
Lattice="7.10842262195238 0 0 0 7.10842262195238 0 0 0 7.10842262195238 " PBC="1 1 1" Properties=species:S:1:pos:R:3:force:R:3 Energy="-507.71947873"
C     7.096867594694285e+00   1.462593496178100e-02   7.078670174955537e+00  8.21401850e-01  -2.21063682e+00  -4.28984670e-01
C     1.742334379248913e+00   1.796192267324283e+00   7.053413593965546e+00  7.34539030e-01  -2.25650357e+00   2.29361240e+00
C     2.495546820780780e-02   1.704886071539133e+00   1.708089482192837e+00 -1.58965502e+00   1.59430498e+00   3.95293685e+00
C     1.775397287791735e+00   2.033755253695100e-02   1.812810266641093e+00  5.99886510e-01  -1.80687157e+00  -2.11159791e+00
C     8.753181530134054e-01   8.133488438863528e-01   8.968831879683780e-01  5.11925400e-01   1.84933212e+00  -1.87203205e+00
C     2.600330443684997e+00   2.645702936594648e+00   8.920522328715998e-01  1.73498596e+00   1.35375787e+00  -8.67331990e-01
C     9.397850064279950e-01   2.653746330041856e+00   2.663596400182164e+00 -2.91316769e+00  -8.63288620e-01   4.84820930e-01
C     2.653955673088015e+00   9.217140455276571e-01   2.600031961019183e+00  1.88311221e+00  -1.56532962e+00   2.49383219e+00
C     3.539685106207577e+00   4.945898290543600e-02   6.992018716470415e+00  2.10087358e+00  -5.43119900e-01   1.89174048e+00
C     5.377825597097005e+00   1.840438786090926e+00   7.054087188093018e+00 -2.35857776e+00  -1.62285630e+00   1.75496940e-01
C     3.590526748396830e+00   1.772701916102684e+00   1.767506583262404e+00 -9.74666110e-01   1.35957194e+00  -1.11625264e+00
C     5.389794403683430e+00   7.087025841408442e+00   1.726169826211033e+00 -4.13708400e-02   1.29535907e+00  -1.57961952e+00
C     4.563481716212305e+00   9.486385468012051e-01   7.913491288881672e-01 -4.35417519e+00  -1.99931408e+00   1.89104699e+00
C     6.116139424575388e+00   2.606805576933782e+00   1.010894822949427e+00  3.62610010e+00   2.62475602e+00  -4.19654122e+00
C     4.387122532936593e+00   2.738922364327971e+00   2.689406585125801e+00  1.67614163e+00  -2.90875815e+00  -2.42159730e-01
C     6.226085397238928e+00   8.442237088625132e-01   2.635875329069819e+00  1.87125963e+00   4.55628150e-01   7.09764090e-01
C     7.054737182257391e+00   3.491128537553750e+00   4.335306112753460e-02  1.36878080e-01   1.59549814e+00  -3.13883030e-01
C     1.732448838079731e+00   5.293780086344376e+00   3.556464679970540e-02  9.34248710e-01   2.39967691e+00  -2.56334441e+00
C     3.879421644865000e-03   5.197343102196336e+00   1.792688454730659e+00  2.22816320e-01   4.13815268e+00   5.55837010e-01
C     1.686031478129167e+00   3.587734631075920e+00   1.794781743023797e+00  3.37967059e+00  -2.59821110e+00  -5.11427920e-01
C     8.764441271564133e-01   4.425441906754227e+00   8.726980595198996e-01 -1.06501392e+00  -1.12783284e+00   1.50349477e+00
C     2.713910241991881e+00   6.230057939220115e+00   7.620914300580568e-01 -1.80765447e+00  -7.66395570e-01   4.53728749e+00
C     9.489738510961904e-01   6.239164112933239e+00   2.772250914624103e+00 -1.09748156e+00  -9.43039860e-01  -2.47159353e+00
C     2.618838217155334e+00   4.349580180795551e+00   2.694625802266084e+00  1.08289702e+00   4.25789206e+00   3.30585670e-01
C     3.537440692849539e+00   3.581707186283743e+00   7.087894206315702e+00 -1.09930957e+00  -5.36333500e-01   1.19490677e+00
C     5.334813527002552e+00   5.333610710811022e+00   5.546972290445560e-02 -7.14546820e-01   5.79722730e-01  -2.45981164e+00
C     3.549443904201445e+00   5.252139515310225e+00   1.779755319531605e+00 -1.78864570e-01   3.93490020e+00   2.53742940e-01
C     5.286275226994858e+00   3.618301772436860e+00   1.823818227741973e+00  6.17558180e-01  -3.36913290e+00   1.47085866e+00
C     4.451933647258668e+00   4.481505182947453e+00   9.613986629936883e-01 -2.81228230e-01  -1.72698646e+00  -3.14535742e+00
C     6.258670264360555e+00   6.183948302884771e+00   7.970073622094610e-01 -2.35632220e-01   5.02063610e-01   4.37324089e+00
C     4.541804368179935e+00   6.287242071492062e+00   2.594372021676461e+00 -3.71447250e+00  -3.04002422e+00   2.37773913e+00
C     6.229617714607258e+00   4.354271384303620e+00   2.766715941351039e+00  8.27553960e-01   2.61155098e+00  -2.60137661e+00
C     1.469509991387360e-02   1.331791411547480e-02   3.608785513822788e+00  1.59184940e-01  -1.19194330e-01  -2.06720747e+00
C     1.814074215267155e+00   1.770624835013120e+00   3.530775053874538e+00 -8.87524540e-01   1.57681970e+00   3.73371590e-01
C     7.088951513096201e+00   1.837941597224520e+00   5.293137982529111e+00 -1.33244778e+00  -2.50367246e+00   1.51599042e+00
C     1.702520459575424e+00   7.597844625809620e-02   5.282810937231002e+00  2.44082361e+00  -2.56351635e+00   2.07854184e+00
C     8.263374958660692e-01   9.739067145200667e-01   4.458989751888185e+00  2.26196705e+00  -1.80586540e+00  -2.26918312e+00
C     2.678964312297021e+00   2.690946909223328e+00   4.477699191308252e+00 -1.00805040e+00  -9.30247630e-01  -1.55194298e+00
C     8.074157278623436e-01   2.585981026363135e+00   6.241842708744907e+00  1.15218780e+00   3.94735804e+00  -2.12028800e-01
C     2.639681747214377e+00   9.297363269596843e-01   6.161716000298458e+00 -1.86686600e-02  -3.07165240e-01  -3.08765380e-01
C     3.548146617073294e+00   7.379893279857800e-03   3.528811067788859e+00  1.71815412e+00  -1.87758870e-01  -6.02254000e-02
C     5.406363354884162e+00   1.743031075749899e+00   3.544832741532077e+00 -3.80517021e+00   1.39222360e+00  -7.13756030e-01
C     3.553388367913282e+00   1.780288806649236e+00   5.249773832262289e+00  3.45318620e-01   4.51348400e-01   2.83855095e+00
C     5.401702646509133e+00   7.103137721034709e+00   5.252780623946323e+00 -2.12288399e+00  -2.94966100e-01   2.69407766e+00
C     4.483957517667126e+00   9.005769376144086e-01   4.444893678748500e+00 -8.84982840e-01  -8.75942410e-01  -2.33377438e+00
C     6.134289502219486e+00   2.651074060726320e+00   4.459960975670756e+00  4.05333265e+00   5.91100470e-01   3.92912270e-01
C     4.376494019435169e+00   2.710543977375954e+00   6.162912418909631e+00  2.05012318e+00  -7.13588320e-01   1.98131594e+00
C     6.229157302074161e+00   8.692361866197333e-01   6.162422719675339e+00  6.76962230e-01   1.96386955e+00   8.35888690e-01
C     3.198065119892760e-02   3.474118793066352e+00   3.642821707590741e+00 -1.39278805e+00   1.92420315e+00  -1.86122470e+00
C     1.794335760588618e+00   5.351529124961934e+00   3.637254035573626e+00  2.17813440e-01  -1.93745813e+00  -1.03285367e+00
C     9.898478498350000e-04   5.320832965730441e+00   5.335181387873137e+00 -7.60215190e-01   1.86867930e-01   1.23093010e+00
C     1.759394451368461e+00   3.550222560815239e+00   5.374109953509305e+00 -6.26615040e-01  -1.62450120e-01  -3.12004960e-01
C     8.800187396393327e-01   4.458819007576853e+00   4.519230079381376e+00  4.58647810e-01  -2.02059761e+00  -1.62647890e+00
C     2.710221326073233e+00   6.179286030656765e+00   4.496179526267276e+00 -1.05341170e+00   2.99432219e+00  -2.14551809e+00
C     8.665895787098550e-01   6.190671306830314e+00   6.202990914073036e+00  2.07325070e-01   1.96654786e+00   4.74139920e-01
C     2.577836266809364e+00   4.471549623815464e+00   6.212959765955324e+00  3.18927800e+00  -1.07058091e+00   1.87802840e+00
C     3.550350583506626e+00   3.553754522762439e+00   3.615565385149291e+00 -1.33828760e-01   5.72936940e-01  -8.35961110e-01
C     5.418276431437246e+00   5.405496838166783e+00   3.544005747644466e+00 -1.95152341e+00  -2.92054385e+00   3.42216420e-01
C     3.569483969251749e+00   5.358802605155170e+00   5.402118915737759e+00 -6.81646900e-02  -1.22615217e+00  -1.87605151e+00
C     5.329015328839870e+00   3.572460550139648e+00   5.370127175399545e+00 -1.01338902e+00   1.01435130e-01  -1.51619268e+00
C     4.495221879571909e+00   4.440057747755887e+00   4.490981065721043e+00 -2.13381268e+00   2.23789372e+00  -1.38186070e+00
C     6.274019907829279e+00   6.200557061252174e+00   4.440170345170189e+00 -1.16927440e-01   1.31088553e+00  -2.06007860e-01
C     4.494676805725407e+00   6.231605940414072e+00   6.189797184100732e+00 -1.18309053e+00   4.98014570e-01   8.16782500e-01
C     6.177682086176788e+00   4.483485447320931e+00   6.234967300218392e+00  1.22996161e+00  -2.73920119e+00   8.72213700e-01
