64
Lattice="7.10842262195238 0 0 0 7.10842262195238 0 0 0 7.10842262195238 " PBC="1 1 1" Properties=species:S:1:pos:R:3:force:R:3 Energy="-503.70548732"
C     7.067969510964520e+00   7.103819703100871e+00   7.108182995073480e+00  1.08645361e+00   1.65285692e+00   6.61700440e-01
C     1.848491349403314e+00   1.758636977854073e+00   4.395450476541280e-02 -2.40374913e+00  -9.62573770e-01  -2.69091202e+00
C     5.052034148682820e-02   1.882317133861715e+00   1.785473547939812e+00 -3.26035882e+00  -2.14297287e+00   2.14600537e+00
C     1.693746746788236e+00   1.761104595682380e-02   1.828881983679556e+00  2.91113209e+00   7.99430760e-01  -1.37285863e+00
C     8.136159073241862e-01   9.421423726214656e-01   1.009638622504021e+00  3.52008572e+00  -1.98243326e+00  -3.74093187e+00
C     2.705678688597921e+00   2.682055907462911e+00   7.669513164348983e-01 -6.72873590e-01  -2.74336890e-01   3.96513282e+00
C     8.793973924181185e-01   2.736253649223744e+00   2.743993726277757e+00  6.91488530e-01  -2.48191730e+00  -1.60713766e+00
C     2.612322921318747e+00   9.592445976871499e-01   2.639974969647452e+00 -5.50246240e-01  -1.57053024e+00   1.35112576e+00
C     3.559936078157017e+00   7.044420728508984e+00   7.021637452085396e+00  4.05344260e-01   2.20512657e+00   1.30337359e+00
C     5.342705724300632e+00   1.781496101147017e+00   1.436049224430496e-01 -1.51254171e+00  -2.49377801e+00  -4.77371653e+00
C     3.594428348320269e+00   1.834783822644037e+00   1.668789714727452e+00 -2.14763078e+00  -7.85596040e-01   4.44409420e+00
C     5.311725228164340e+00   8.935429401792400e-03   1.789681236541268e+00  6.98843080e-01  -1.06254100e-02   1.74289626e+00
C     4.422754994088093e+00   8.771064188919188e-01   9.560305954837429e-01  1.58774864e+00  -5.99945830e-01  -3.01095582e+00
C     6.281155768960592e+00   2.616309964482079e+00   7.989305459493019e-01 -4.64738840e-01   2.95802215e+00   4.17711159e+00
C     4.468432722665046e+00   2.685524106859209e+00   2.642873002465399e+00  1.10073106e+00   2.79899980e-01   1.09434424e+00
C     6.208988503490209e+00   8.954029300419892e-01   2.704921357251986e+00  5.39809360e-01   1.61829929e+00  -2.92746460e-01
C     6.259328646463620e-02   3.438294831009470e+00   6.993918300247159e+00 -3.08813089e+00   4.18843847e+00   3.70492917e+00
C     1.703617218101463e+00   5.274603339221271e+00   8.313861819476979e-02  2.37091566e+00   7.87797910e-01  -2.50760260e+00
C     7.037390853958935e+00   5.370718169656171e+00   1.725257389083529e+00  3.18869651e+00  -1.94490660e+00   2.46873856e+00
C     1.779901824121803e+00   3.459924339357606e+00   1.751526778128418e+00  9.53174200e-02   3.74530046e+00   1.51949401e+00
C     7.582038337271788e-01   4.309090534467805e+00   9.496159549114549e-01  4.12373461e+00   2.79288819e+00  -2.82837876e+00
C     2.771147189843895e+00   6.260009917687521e+00   8.326374064972704e-01 -6.35143331e+00  -2.07376787e+00   1.68610124e+00
C     8.838060361270426e-01   6.192746113224639e+00   2.688778200566193e+00 -5.49733730e-01   2.53272038e+00  -7.21327970e-01
C     2.666704131467402e+00   4.509912927684890e+00   2.591035683519764e+00  4.76546100e-02  -1.90712388e+00   1.43993092e+00
C     3.556638267650921e+00   3.573708078309457e+00   7.065473601614186e+00 -3.25609370e-01  -1.52793000e-03  -1.23463741e+00
C     5.328390569575798e+00   5.395793272616674e+00   5.136233414616720e-02 -1.16508740e-01  -3.69262249e+00  -3.80210425e+00
C     3.523570667549168e+00   5.376315270542934e+00   1.714942783525005e+00  1.52798588e+00  -4.23153630e-01   1.75685054e+00
C     5.372387938129609e+00   3.587715935924430e+00   1.830004972285064e+00 -1.31094650e-01  -1.07451040e-01  -3.19454213e+00
C     4.389195988730621e+00   4.449244815318428e+00   8.411591257025788e-01  2.64617320e+00   1.17757310e+00   2.11332349e+00
C     6.255203131227650e+00   6.227352260318264e+00   8.590195351249121e-01 -3.31260593e+00   1.34188780e+00   9.02341510e-01
C     4.409918604520897e+00   6.263028935858461e+00   2.703592224390499e+00  1.38100090e-01  -2.15615460e+00  -1.29197230e+00
C     6.271081143749718e+00   4.546254098571604e+00   2.643160680328831e+00 -4.01452949e+00  -3.47173995e+00   2.01475332e+00
C     7.056434673579046e+00   2.780317339360600e-03   3.589400774253821e+00  1.62018977e+00   7.52642340e-01  -1.01837453e+00
C     1.684682939273927e+00   1.792095470115699e+00   3.632584939259905e+00  2.12234085e+00  -7.51103190e-01  -2.09349896e+00
C     8.535011955607800e-03   1.785663058486861e+00   5.398295934968497e+00 -1.72132288e+00   5.99182490e-01   2.77214950e-01
C     1.733194867033700e+00   7.076527198788286e+00   5.371828078764059e+00  2.21137721e+00  -4.66360530e-01   1.23740151e+00
C     8.680625149609451e-01   9.362256770537085e-01   4.689530043215800e+00  5.95428420e-01  -3.03977105e+00  -8.38695016e+00
C     2.645907872418782e+00   2.653596129071896e+00   4.299436443539130e+00  1.75767653e+00   1.61734074e+00   5.09293535e+00
C     9.434589235749157e-01   2.655003667834882e+00   6.206426059304151e+00  4.80603860e-01  -9.94565910e-01  -8.26304420e-01
C     2.647720662355335e+00   8.213832096368340e-01   6.208385424915128e+00  1.67953283e+00   1.44076477e+00   1.24963330e-01
C     3.495670961776383e+00   2.696573012474380e-02   3.559577742572742e+00  1.98268943e+00   8.23873280e-01  -1.27511648e+00
C     5.357247353370140e+00   1.823434444004719e+00   3.698120757268090e+00 -1.34917446e+00  -3.04285067e+00  -8.16564431e+00
C     3.615325262633188e+00   1.769558571620120e+00   5.313873180227425e+00 -2.85278795e+00  -4.00567960e-01   7.83829040e-01
C     5.308379009300200e+00   7.099659783099422e+00   5.349263812841392e+00  1.12702142e+00  -9.04710100e-02  -1.75438808e+00
C     4.493400914949344e+00   9.058390185430897e-01   4.426411424515369e+00 -2.60624265e+00  -7.46390610e-01   2.57919398e+00
C     6.212319510329940e+00   2.666581724429886e+00   4.382891457624717e+00  3.11966748e+00   1.93672686e+00   5.33988598e+00
C     4.434074233015502e+00   2.631605512854664e+00   6.315870888172981e+00  1.94410201e+00  -7.01813700e-02  -2.55881545e+00
C     6.198847201275160e+00   8.913718857426396e-01   6.227783386150167e+00 -6.27465600e-01  -2.56691660e-01   1.53784712e+00
C     4.561474795254000e-02   3.611717738153538e+00   3.606461983720988e+00 -2.58415601e+00   3.83573820e-01  -3.64653622e+00
C     1.780169882738803e+00   5.390278487263852e+00   3.577438507416207e+00 -4.39783950e-01  -2.98970948e+00  -3.81385765e+00
C     8.020909506461540e-02   5.303631151663850e+00   5.282761746946471e+00 -4.20117690e+00   2.72937327e+00   1.88490235e+00
C     1.728355097492873e+00   3.562640832963927e+00   5.254817115942727e+00  2.77192671e+00  -8.21983440e-01  -4.17679400e-02
C     8.634278944969315e-01   4.522368163631201e+00   4.381160343464068e+00  3.00912699e+00  -2.44386046e+00   2.40355579e+00
C     2.703435910177085e+00   6.140365142117027e+00   4.383413073676572e+00 -1.56090697e+00   4.01395214e+00   1.94310104e+00
C     8.868483699241764e-01   6.219453238934467e+00   6.296377318653702e+00 -1.92449070e-01  -1.52252114e+00  -1.53181223e+00
C     2.681995699123320e+00   4.373121286154658e+00   6.086304308575855e+00 -1.65328721e+00   1.62195273e+00   3.01621272e+00
C     3.664378283522796e+00   3.568511252700428e+00   3.569986747983661e+00 -4.35498250e+00  -7.90920910e-01  -2.92897415e+00
C     5.278432219981307e+00   5.266763104492542e+00   3.625545894844676e+00  2.22881033e+00   3.20271456e+00  -2.95776743e+00
C     3.563218605554480e+00   5.253209617251440e+00   5.217037626823081e+00 -4.10800020e-01   1.46689564e+00   4.10684531e+00
C     5.387945289707289e+00   3.464514247843340e+00   5.381787334275809e+00 -1.87336611e+00   2.32297310e+00  -6.62651730e-01
C     4.472308661182827e+00   4.385516171592925e+00   4.514630645609331e+00  9.26330840e-01  -1.24847479e+00  -2.38080214e+00
C     6.194784666663604e+00   6.234736418651694e+00   4.352338106603658e+00 -2.54939170e-01  -1.39799690e+00   4.88244972e+00
C     4.433640050561873e+00   6.164867874888166e+00   6.162638531386082e+00  6.03706240e-01   1.09177131e+00   7.41604510e-01
C     6.261453993742774e+00   4.408763912350504e+00   6.129000196032170e+00  7.02643790e-01   9.50094900e-02   2.66890129e+00
