64
Lattice="7.10842262195238 0 0 0 7.10842262195238 0 0 0 7.10842262195238 " PBC="1 1 1" Properties=species:S:1:pos:R:3:force:R:3 Energy="-502.36831253"
C     7.091299567256039e+00   7.102798933612640e+00   4.090250351351580e-02 -3.57626610e-01  -4.27715820e-01  -2.43482625e+00
C     1.780599586886183e+00   1.700444729086158e+00   7.102597978505171e+00 -1.46484252e+00   4.40307515e+00   7.39145290e-01
C     7.061849869930962e+00   1.754069603068044e+00   1.851437364073947e+00  3.64414555e+00   2.42420542e+00  -2.97427044e+00
C     1.895354478536379e+00   7.013113742521754e+00   1.756938633521703e+00 -3.52841143e+00   4.38462367e+00  -1.68658940e+00
C     8.619610714892944e-01   8.381689677274757e-01   8.838341143963916e-01  8.84828070e-01   1.07412881e+00   6.98079330e-01
C     2.665874223126517e+00   2.678057277570709e+00   8.208014563296132e-01 -1.50241710e-01  -2.87009420e-01   1.44800444e+00
C     1.012109652375185e+00   2.550492155348558e+00   2.750809424054266e+00 -5.02915561e+00   4.86397645e+00  -3.82661946e+00
C     2.609591367758560e+00   1.034365270587691e+00   2.538804557960980e+00  7.74268320e-01  -7.04685977e+00   5.14357273e+00
C     3.606551123340644e+00   5.666955355848540e-02   7.040737001738848e+00 -1.09609415e+00  -1.18333746e+00   2.31802295e+00
C     5.340088332007722e+00   1.805716558455916e+00   5.649376226709280e-02 -7.71750200e-02  -5.99620930e-01   3.87026810e-01
C     3.473548981909133e+00   1.830525379905074e+00   1.762293692618254e+00  3.22112046e+00   4.76445960e-01  -1.21778420e+00
C     5.351602554967599e+00   7.029893245200491e+00   1.803325214002322e+00 -8.12543100e-01   1.65732311e+00  -9.12712380e-01
C     4.447705415315840e+00   9.140367358453785e-01   9.822906014107732e-01 -5.85948770e-01  -1.12245537e+00  -3.20381150e+00
C     6.185191779253687e+00   2.757418551069437e+00   9.834055574987203e-01  1.55691989e+00  -3.18388702e+00  -3.13335049e+00
C     4.377221495406100e+00   2.635697547420093e+00   2.690980389893869e+00 -4.79276100e-02   1.72708067e+00  -2.85348215e+00
C     6.188620526904444e+00   9.412425174019997e-01   2.598597410250242e+00 -4.32583000e-02  -4.74258754e+00   2.93539537e+00
C     7.058719107356436e+00   3.559046245813445e+00   9.142213415808200e-03  2.71873515e+00   2.18244530e-01   3.34467480e-01
C     1.792777665434540e+00   5.362512064415191e+00   5.140334974468460e-02 -2.97973121e+00  -3.84338991e+00  -3.56305964e+00
C     2.662438367053140e-02   5.357775224833902e+00   1.740307767959951e+00 -7.08516580e-01  -6.42696660e-01   1.48170384e+00
C     1.854746690224688e+00   3.579292455119729e+00   1.736695765174050e+00 -3.06615226e+00  -3.94666345e+00   7.90068350e-01
C     8.722046639058454e-01   4.365068722842269e+00   9.043696365033095e-01  5.23399730e-01   3.36723222e+00   6.30973280e-01
C     2.699621317346514e+00   6.154624424640067e+00   7.701144934165721e-01  1.24145931e+00   4.33374183e+00   4.22412572e+00
C     9.470423505018839e-01   6.240373468873580e+00   2.605481064546997e+00 -1.75767970e-01  -1.24810770e+00   2.07161731e+00
C     2.651092542625132e+00   4.376513141092016e+00   2.656012779510017e+00  8.42166170e-01   5.00454704e+00  -5.12865140e-01
C     3.523480674918799e+00   3.612141826647047e+00   3.184025985218260e-02 -5.79317550e-01  -2.93716770e+00  -2.05251438e+00
C     5.328744640106501e+00   5.180613358475940e+00   6.744307888135739e-02  4.23003330e-01   6.77560626e+00  -2.06970262e+00
C     3.521206121848852e+00   5.366828654051186e+00   1.742717309975452e+00 -2.90448100e-02  -2.54543256e+00   2.46975500e-01
C     5.294991503727276e+00   3.620588196572583e+00   1.755370586575957e+00 -1.41220032e+00  -1.55375238e+00   2.74329272e+00
C     4.308520723310585e+00   4.445545734355433e+00   9.039439130725978e-01  4.87955667e+00   1.45589640e-01   5.27078550e-01
C     6.248445793600852e+00   6.201630930657378e+00   8.628033484855382e-01 -1.76544078e+00  -1.19947354e+00   1.78616207e+00
C     4.396359643794377e+00   6.129204421014043e+00   2.644818293399589e+00  7.96964330e-01   3.20111561e+00   1.45557663e+00
C     6.158980608190056e+00   4.491378284377049e+00   2.679563836660791e+00  3.31772221e+00  -5.73364060e-01  -2.14736580e+00
C     8.070831958521800e-02   7.096365100299278e+00   3.570706617942388e+00 -3.53904399e+00  -8.50897430e-01  -2.00113540e+00
C     1.745711093246091e+00   1.698655041523120e+00   3.642009996811763e+00  1.27148154e+00   1.60746161e+00  -3.18464433e+00
C     7.028109741965132e+00   1.731030849935494e+00   5.293250224522280e+00  2.94018985e+00   2.20484951e+00  -6.78834560e-01
C     1.807571856759737e+00   1.906180392933960e-02   5.368054856953136e+00 -2.40327965e+00   2.50784210e-01   1.17384910e+00
C     8.712894544935204e-01   8.236132639811804e-01   4.463939844148075e+00  6.73633420e-01   1.24238277e+00   1.48394067e+00
C     2.609718253102327e+00   2.702677939073115e+00   4.304809344776458e+00  1.58510655e+00  -3.21939928e+00   7.09565482e+00
C     9.412214053868183e-01   2.767229240548430e+00   6.265163168665890e+00 -3.25927530e+00  -6.11254643e+00  -3.72132060e-01
C     2.640280916157017e+00   9.469313880247857e-01   6.208672320852071e+00  2.58641738e+00  -1.71014222e+00  -8.38114590e-01
C     3.579095267476251e+00   4.008247588007260e-02   3.566426921019791e+00 -2.68851740e-01  -3.12775860e-01  -6.97710690e-01
C     5.269866499639980e+00   1.749988515473450e+00   3.413192716043011e+00  2.31651701e+00   1.24875346e+00   4.44475390e+00
C     3.633495670365980e+00   1.759328414122321e+00   5.297948038863386e+00 -2.32905023e+00   2.18385856e+00   1.11139635e+00
C     5.331512233369372e+00   3.920437243382400e-02   5.266945222280066e+00  1.35743284e+00  -3.76872785e+00   2.78419215e+00
C     4.495929523043730e+00   8.436086881374308e-01   4.457541481863586e+00 -1.59325684e+00   3.46093428e+00  -3.23124583e+00
C     6.269927660011171e+00   2.708343920575064e+00   4.268067258853975e+00 -1.73456766e+00  -1.57073870e+00   4.13369750e+00
C     4.485844803872736e+00   2.714937906650055e+00   6.301866513685093e+00 -1.43419320e+00  -1.64638114e+00  -2.04206501e+00
C     6.213072576622304e+00   8.186159007108680e-01   6.173667817754822e+00 -9.42366100e-02   3.74220466e+00   2.14194337e+00
C     1.434862117852956e-01   3.677269407944166e+00   3.464804058233557e+00 -3.69609246e+00  -3.98041151e+00   3.12501956e+00
C     1.843784080860124e+00   5.414877965666850e+00   3.524287623054622e+00 -1.15425233e+00  -2.27377720e+00   2.81093110e+00
C     7.103730208060085e+00   5.406061175838586e+00   5.390324905263561e+00 -4.96246250e-01  -3.04358756e+00  -1.33146370e+00
C     1.826849756736724e+00   3.519524197972734e+00   5.402971002357219e+00 -1.67720888e+00   1.96111871e+00  -3.62510856e+00
C     9.071581996129094e-01   4.438826568958103e+00   4.534533518103069e+00  7.57189260e-01   2.77898617e+00  -2.52387408e+00
C     2.699839474836722e+00   6.382649400623595e+00   4.528847206512426e+00  7.93951630e-01  -5.90778277e+00  -3.58311982e+00
C     8.412841628564646e-01   6.199843517789579e+00   6.295997942138473e+00  2.79701789e+00   1.93234637e+00  -1.01827127e+00
C     2.624937954605556e+00   4.434647171878674e+00   6.224683118708681e+00  2.76561617e+00   1.34610327e+00   9.34857320e-01
C     3.483342326836933e+00   3.519884381746889e+00   3.519588600281670e+00  1.99208313e+00   5.19314540e-01   2.30588220e-01
C     5.236071352483073e+00   5.233817769259853e+00   3.541059875142285e+00  1.79832275e+00   1.99256049e+00   1.67860599e+00
C     3.625337404809232e+00   5.271828637535780e+00   5.413872408203025e+00 -2.42377739e+00   2.95350434e+00  -2.55582515e+00
C     5.282530296705964e+00   3.557875915113289e+00   5.379775437421671e+00  3.55819656e+00  -3.20566980e-01  -3.01524712e+00
C     4.407863986046812e+00   4.329446568903568e+00   4.433144735673711e+00 -8.04692540e-01   2.71495275e+00   1.54653922e+00
C     6.163485855362386e+00   6.181361618977578e+00   4.461458862485243e+00  1.87995423e+00   9.01590930e-01  -1.74865245e+00
C     4.494354438759591e+00   6.273098300836595e+00   6.232491436619846e+00 -3.49258220e-01  -2.92766141e+00  -4.80355390e-01
C     6.257807017517583e+00   4.482988639664020e+00   6.216298023386128e+00 -2.73009705e+00  -2.34174709e+00   8.80493020e-01
