64
Lattice="7.10842262195238 0 0 0 7.10842262195238 0 0 0 7.10842262195238 " PBC="1 1 1" Properties=species:S:1:pos:R:3:force:R:3 Energy="-505.33852235"
C     7.043880417305638e+00   1.672640276176480e-02   7.081814088111911e+00  2.70505489e+00  -1.67694145e+00   5.33449020e-01
C     1.679466423334240e+00   1.801157571608579e+00   7.064688049830449e+00  2.59790038e+00  -1.80410590e+00   2.23772422e+00
C     1.710499735050600e-03   1.722822825420406e+00   1.750361067902964e+00  1.03713407e+00   2.53529690e-01   1.22263934e+00
C     1.919743121124467e+00   7.079455158065464e+00   1.669930474389510e+00 -3.86602407e+00  -1.22733067e+00   7.60080540e-01
C     9.389890763472336e-01   7.919717556254530e-01   8.383009711355293e-01 -2.60762583e+00   2.95626482e+00   7.97019250e-01
C     2.608267708382489e+00   2.594548381641663e+00   8.896261993156200e-01 -1.43550040e-01   2.44917826e+00  -4.67504520e-01
C     9.058400848064827e-01   2.701216163045538e+00   2.644137661933724e+00 -2.98546896e+00  -4.01210537e+00   2.35457708e+00
C     2.726463432001896e+00   7.771782751425186e-01   2.567335136241291e+00 -1.52123905e+00   4.79274327e+00   1.40844551e+00
C     3.601481609580738e+00   1.455310206361648e-01   7.037162815761286e+00  8.10214490e-01  -3.22063425e+00   3.12078031e+00
C     5.393849190114330e+00   1.792666774041668e+00   3.559052145804220e-02 -3.47060370e-01   9.71518920e-01  -8.41372000e-01
C     3.534997741247723e+00   1.781466387940465e+00   1.705690816063944e+00  1.60491081e+00  -5.48279830e-01   2.13520678e+00
C     5.320484013264025e+00   7.062083523782482e+00   1.746887110684344e+00 -1.70751501e+00   8.28950100e-02   5.10979000e-01
C     4.517919854924057e+00   9.526551610026359e-01   9.032999610674520e-01 -2.10140945e+00  -1.34234093e+00  -1.22824893e+00
C     6.232329293499883e+00   2.658903206315761e+00   9.894094734120246e-01 -4.99868130e-01   1.16494667e+00  -2.63378508e+00
C     4.390559597441815e+00   2.702421822606116e+00   2.636515158189845e+00 -1.24501250e-01  -1.41088632e+00   1.44207702e+00
C     6.206009576822845e+00   7.396583856169560e-01   2.635151904899782e+00  2.19477316e+00   3.66425203e+00  -1.12735320e+00
C     7.056964535401141e+00   3.597730637132616e+00   6.702922651642100e-02  1.42697396e+00  -1.37187134e+00  -8.34804460e-01
C     1.845661628526744e+00   5.289738095074191e+00   6.190085501722200e-03 -2.35587667e+00   3.28810068e+00  -1.01813360e-01
C     5.745745112168620e-02   5.292420742686753e+00   1.839380199794356e+00 -4.83086490e-01   1.52325432e+00  -1.76169876e+00
C     1.776793879583887e+00   3.513067617706987e+00   1.896407804600210e+00  2.30468470e-01   2.14341759e+00  -5.02360217e+00
C     9.486001613190569e-01   4.495824673810085e+00   9.175686977925780e-01 -1.58346641e+00  -2.56936379e+00   5.21153900e-01
C     2.717709196292688e+00   6.264403704793169e+00   7.257475579707470e-01  9.60667900e-01  -1.60491232e+00   4.23862386e+00
C     1.034603687082365e+00   6.192911028629424e+00   2.709009624353427e+00 -1.82683073e+00  -4.44528100e-01  -3.72498449e+00
C     2.572353327189880e+00   4.422073722864192e+00   2.764188826025403e+00  3.02054535e+00   1.04903484e+00  -3.04591795e+00
C     3.487436422844922e+00   3.479268916338769e+00   7.086472308539023e+00  3.03628616e+00   1.95583579e+00   1.68540351e+00
C     5.315066684385322e+00   5.286146706713889e+00   7.105076472220087e+00 -1.47801307e+00   1.21759480e+00   1.51616311e+00
C     3.527833375341704e+00   5.291541359724432e+00   1.829088554440893e+00 -1.59016090e-01   6.97285050e-01  -1.98055818e+00
C     5.306519801363939e+00   3.622229460271315e+00   1.844481772540277e+00  7.49711380e-01  -4.21860530e+00  -3.91071760e-01
C     4.417718036903787e+00   4.389298563269027e+00   1.007893575835037e+00 -9.63843080e-01   1.51732917e+00  -4.33247866e+00
C     6.123843888432075e+00   6.197312634999953e+00   8.673139980590592e-01  4.07097418e+00  -4.96260430e-01   4.40537580e-01
C     4.371131780831772e+00   6.201303445627274e+00   2.664586674537356e+00  2.41966439e+00  -9.81626200e-01  -5.04774760e-01
C     6.235848957875950e+00   4.400752080299728e+00   2.686873143304032e+00 -1.67589415e+00   4.09742615e+00  -4.53352430e-01
C     7.334562868810060e-02   7.015881122531947e+00   3.390993112200751e+00 -2.35121443e+00   1.68530378e+00   6.28245697e+00
C     1.720091485112897e+00   1.710777176785458e+00   3.534641609274461e+00  1.61482033e+00   1.56426877e+00   5.42433850e-01
C     7.040581753788827e+00   1.771425101231679e+00   5.242319798134504e+00  2.26439687e+00   6.52048970e-01   1.46021080e+00
C     1.852002341503785e+00   9.511105007673099e-02   5.334301507321233e+00 -1.55946598e+00  -2.04431934e+00   3.46227550e-01
C     8.739263949486356e-01   8.398487590768080e-01   4.437725118873134e+00 -2.36021950e-01   9.91434630e-01  -1.89416109e+00
C     2.593581351828438e+00   2.658120924406431e+00   4.512007068988741e+00  7.78423490e-01  -4.54913000e-03  -1.28176671e+00
C     8.036451361677908e-01   2.622641010004356e+00   6.235553176410733e+00 -3.31637100e-01   2.89974636e+00  -4.29642130e-01
C     2.733607894324580e+00   1.028959954943216e+00   6.256672300014752e+00 -2.40789348e+00  -2.29760292e+00  -2.24223867e+00
C     3.540399147259757e+00   7.100917760650482e+00   3.475140131228394e+00  2.04705062e+00   1.66013860e-01   3.22221312e+00
C     5.371680507910467e+00   1.705100532649579e+00   3.491956455536302e+00 -1.43995559e+00   2.56906299e+00   8.96606490e-01
C     3.576783395187548e+00   1.822211653145626e+00   5.379366703121020e+00  1.21675956e+00   7.23848960e-01  -3.11843968e+00
C     5.311635235533970e+00   7.108081628966918e+00   5.347133489666405e+00  9.07810050e-01   4.18867480e-01  -1.72162443e+00
C     4.465654822189376e+00   9.080587656746372e-01   4.420991892025654e+00 -1.27922134e+00  -3.69047190e-01   3.67013010e-01
C     6.273475118319682e+00   2.762898291898742e+00   4.337784108878791e+00 -2.77425380e+00  -4.81491565e+00   2.66523189e+00
C     4.568267959330803e+00   2.667913487407743e+00   6.190640598444595e+00 -3.64654927e+00  -5.26263850e-01   1.83272320e+00
C     6.221283231253761e+00   9.184053591349519e-01   6.199454758156491e+00 -6.12996020e-01  -5.15607770e-01  -3.65195400e-01
C     7.057585527201224e+00   3.620195242970150e+00   3.529817122842267e+00  5.39969754e+00  -1.36311990e+00   3.05716180e-01
C     1.878959754774063e+00   5.365219946928054e+00   3.617625334940342e+00 -2.94047576e+00  -2.53487600e-02   4.82953780e-01
C     7.094113578518618e+00   5.308922803630630e+00   5.339257997161480e+00  6.62810410e-01   2.79827324e+00  -1.15073026e+00
C     1.713934524860584e+00   3.583378874031288e+00   5.458818324671250e+00  3.53313710e-01  -1.23786343e+00  -4.64036339e+00
C     9.474881196843843e-01   4.520835374461650e+00   4.438674377629809e+00 -2.99539696e+00  -1.96892158e+00   2.23855934e+00
C     2.747658971149082e+00   6.248386722608880e+00   4.466097108244792e+00 -1.85501463e+00   1.49874325e+00  -1.13017670e-01
C     9.148220032922099e-01   6.281784580025557e+00   6.236472721960856e+00 -9.37344970e-01  -2.11991277e+00  -1.17220255e+00
C     2.643797737164035e+00   4.448089412305773e+00   6.237014668101404e+00  7.45832890e-01  -5.25171010e-01   5.98852320e-01
C     3.405734843367012e+00   3.574205596808631e+00   3.560094524897217e+00  4.30582095e+00  -2.22111584e+00   3.36705405e+00
C     5.292813696289187e+00   5.328727650976439e+00   3.582009507497772e+00 -1.51145461e+00  -1.30520076e+00  -9.49642800e-01
C     3.519883955241531e+00   5.418476462449773e+00   5.399357009212984e+00  2.29690869e+00  -2.82974292e+00  -5.08111000e-02
C     5.369992541875122e+00   3.531478503377014e+00   5.300313721911322e+00 -1.20757458e+00   1.61601579e+00   2.88749920e-01
C     4.362865325082748e+00   4.421979820601382e+00   4.549666496850334e+00  1.13943087e+00   1.16157498e+00  -3.14005328e+00
C     6.125051182929856e+00   6.199973246502394e+00   4.365345382650640e+00  4.21116551e+00   3.41928580e-01   2.82091324e+00
C     4.479623014806129e+00   6.271160331577705e+00   6.289856904752829e+00 -1.70232442e+00  -6.06638960e-01  -2.68860702e+00
C     6.186125968154407e+00   4.462292964795473e+00   6.207633424886158e+00  1.41672994e+00  -1.18515297e+00   7.60046080e-01
