64
Lattice="7.10842262195238 0 0 0 7.10842262195238 0 0 0 7.10842262195238 " PBC="1 1 1" Properties=species:S:1:pos:R:3:force:R:3 Energy="-511.21906842"
C     7.030101948488613e+00   7.081017660441566e+00   9.894568865909000e-03  2.19940957e+00   1.04916158e+00   1.04543485e+00
C     1.772232191535954e+00   1.783083269749611e+00   7.089148487487001e+00 -3.69759000e-03  -3.65965610e-01   3.25255780e-01
C     7.103417508549032e+00   1.766542183565549e+00   1.844731278174239e+00  7.95294900e-01   1.15227578e+00  -1.60659444e+00
C     1.812387031158298e+00   5.535115441515399e-02   1.781588155219946e+00 -1.66491177e+00  -3.02572422e+00  -1.18297592e+00
C     8.822441735089761e-01   8.634975570386073e-01   9.224000083104872e-01 -7.36807050e-01   1.54625734e+00  -8.41794290e-01
C     2.681562298596178e+00   2.706174998665249e+00   8.211403859201348e-01 -8.54320670e-01  -2.73444974e+00   2.76652262e+00
C     9.234821945701559e-01   2.674347391805330e+00   2.706891669833798e+00 -1.61801859e+00  -7.01082880e-01  -1.47631020e-01
C     2.623941495922685e+00   9.274213980492552e-01   2.677444176119734e+00  1.13565584e+00   3.76728920e-01  -6.10303790e-01
C     3.585202468770224e+00   1.265668864336240e-02   7.060526637060249e+00 -1.02649019e+00  -6.72565820e-01   8.77285630e-01
C     5.386093829951684e+00   1.769881862680877e+00   5.913923282935200e-02 -1.49431087e+00   1.49065089e+00  -8.74663190e-01
C     3.533840205708283e+00   1.818272591834980e+00   1.811719763526959e+00  1.37667143e+00  -2.82190130e-01  -1.64685473e+00
C     5.337040098219815e+00   7.089009020235197e+00   1.789068490511424e+00 -1.71601789e+00  -1.44883680e-01   1.69238780e-01
C     4.445265093830395e+00   9.213844990549940e-01   9.064489922881120e-01 -1.01306370e-01  -1.38127290e+00   1.68186830e-01
C     6.276467906411154e+00   2.717341619759008e+00   9.109948996378281e-01 -1.41912273e+00  -1.66920271e+00   3.83413380e-01
C     4.512931590434698e+00   2.678784611373187e+00   2.705952718289923e+00 -2.27937073e+00   4.40539210e-01  -2.11102234e+00
C     6.179918395933040e+00   8.843590714068786e-01   2.697919845308192e+00  2.12607736e+00  -1.59418460e-01  -1.52129518e+00
C     7.102550423157844e+00   3.561904116043590e+00   7.063274539992463e+00  1.05837619e+00  -8.77835340e-01   2.36012896e+00
C     1.750110496005609e+00   5.249060430968147e+00   7.063603873212448e+00  3.43455700e-02   2.39057571e+00   1.75167572e+00
C     7.092433787169286e+00   5.347369631465841e+00   1.747301105217733e+00  1.31903898e+00  -4.38145400e-02   4.94743970e-01
C     1.806406146534283e+00   3.483723480457818e+00   1.797028431077074e+00 -1.33829397e+00   2.71047197e+00  -1.36815719e+00
C     8.683543157094962e-01   4.428610841558222e+00   9.088759499390323e-01  5.98038830e-01  -8.66834610e-01  -1.35912977e+00
C     2.615261543229855e+00   6.193673478039645e+00   8.191659504532036e-01  2.49790916e+00   7.44240300e-01   1.11766950e+00
C     9.185960781138466e-01   6.210838754813969e+00   2.635082242358106e+00 -8.60911470e-01   1.17260423e+00   9.87558580e-01
C     2.656532405203539e+00   4.437492673453460e+00   2.617716436981672e+00  1.35670586e+00  -5.13024070e-01   1.67163702e+00
C     3.530532656663197e+00   3.534299480893761e+00   7.080721025965634e+00  2.88363798e+00   2.75083370e-01   4.03946580e-01
C     5.367965646249255e+00   5.314685744017116e+00   7.048463359537204e+00 -2.13678728e+00  -2.83546070e-01   2.35104898e+00
C     3.539746096473657e+00   5.294317554178674e+00   1.726564983424479e+00 -6.09592520e-01   1.78236027e+00   6.78152690e-01
C     5.324057061893967e+00   3.622287678252573e+00   1.804733037102213e+00  1.05981556e+00  -2.07116551e+00  -1.38360202e+00
C     4.433161156129963e+00   4.417541108264776e+00   8.891476603048416e-01 -1.98878780e-01   1.06796311e+00  -1.38658853e+00
C     6.191833889349815e+00   6.166557973450297e+00   8.902496079793940e-01  2.24256810e-01   2.14596286e+00  -7.84834820e-01
C     4.376646566184594e+00   6.212660074857665e+00   2.686720951975738e+00  9.40979440e-01   1.73272710e-01  -8.51596380e-01
C     6.201855272475265e+00   4.530886684046330e+00   2.615238014350983e+00  2.12695490e-01  -1.68346109e+00   2.71982972e+00
C     7.090359122943412e+00   1.461790244422040e-02   3.536542899072633e+00  1.02887733e+00  -1.59297704e+00   1.04779921e+00
C     1.748249937469051e+00   1.756489381212119e+00   3.610436231723604e+00  3.89372610e-01  -5.07415300e-02  -7.61748540e-01
C     7.084926226619173e+00   1.721742700603297e+00   5.349411028273853e+00  9.96792240e-01   1.67110714e+00  -7.52006250e-01
C     1.775498298477166e+00   7.095224767142577e+00   5.455720403009227e+00 -5.97309900e-01  -4.94309000e-03  -4.58600038e+00
C     9.075021761834910e-01   8.276789973829156e-01   4.508886187121656e+00 -1.68943328e+00   1.38451214e+00  -1.13206116e+00
C     2.676402792205904e+00   2.612434523553881e+00   4.395043732598964e+00 -3.40488710e-01   2.18155812e+00   1.74189688e+00
C     8.780098994069208e-01   2.648250239840525e+00   6.193637011831604e+00 -4.13048400e-01   1.06103740e-01   4.75818030e-01
C     2.668218296569688e+00   8.940012201855513e-01   6.163083660810547e+00  9.78114660e-01   5.57774870e-01   3.32591489e+00
C     3.518277736066317e+00   8.303312920308900e-02   3.514028036687176e+00  8.49833970e-01  -2.28622160e+00   2.39219183e+00
C     5.365688676315617e+00   1.783800865013099e+00   3.530230406533394e+00 -9.36664410e-01   5.55168310e-01   1.99376173e+00
C     3.550206637948571e+00   1.788289762813403e+00   5.332467818622178e+00  1.75940559e+00   1.52880830e-01  -8.48236980e-01
C     5.341074838898926e+00   2.074308804742200e-02   5.318577036727757e+00 -1.31680771e+00  -4.93978470e-01  -3.17982550e-01
C     4.475900547132714e+00   9.300982878394949e-01   4.446154073163251e+00 -1.51354154e+00  -5.66692590e-01  -6.86303080e-01
C     6.236948346518360e+00   2.664240281103083e+00   4.423019356325330e+00  9.88160730e-01   6.07639200e-01   2.17735330e-01
C     4.542557576640752e+00   2.687682508303546e+00   6.242154128739891e+00 -3.05707190e+00  -1.43182565e+00   1.42641940e-01
C     6.181450047754971e+00   8.904888774847832e-01   6.231976075979896e+00  1.06211270e+00  -6.29207910e-01   6.06235930e-01
C     1.280454383385840e-02   3.652577733299786e+00   3.520224022179673e+00  4.28270570e-01  -2.06321179e+00   9.49196710e-01
C     1.832723019842273e+00   5.345740878590921e+00   3.586890576974021e+00 -1.79196136e+00   4.02223940e-01  -1.99044759e+00
C     7.102661030213811e+00   5.355134730167476e+00   5.353206641616027e+00  3.21327200e-01   6.47272370e-01  -1.30049303e+00
C     1.745381333520750e+00   3.552233178153306e+00   5.326012304619825e+00  1.30953942e+00  -1.47233742e+00  -1.49667598e+00
C     9.354900974809910e-01   4.500818625037540e+00   4.448236698822459e+00 -1.83708364e+00  -8.04224440e-01   1.19302220e-01
C     2.624017840381623e+00   6.269723363945072e+00   4.457994146216028e+00  2.32641815e+00  -1.52126173e+00   5.08049090e-01
C     8.469342214917454e-01   6.271432228742920e+00   6.260564019230750e+00  2.90826430e-01  -3.36451770e+00  -2.00563620e-01
C     2.673568735191536e+00   4.345311217591109e+00   6.188403648930308e+00 -9.57475090e-01   2.99501286e+00   3.11332770e-01
C     3.573658390435343e+00   3.538363579358293e+00   3.517552463706398e+00 -5.26036390e-01  -4.61937180e-01   1.40167345e+00
C     5.297918823246418e+00   5.309825288966466e+00   3.604566380660914e+00 -5.16222230e-01   1.36807435e+00  -1.63235337e+00
C     3.568634583832885e+00   5.262021502268096e+00   5.335568725821700e+00 -9.29367480e-01   1.78647148e+00  -4.89658740e-01
C     5.390493374879654e+00   3.555190424131679e+00   5.345316292507828e+00 -1.52555169e+00  -1.20826645e+00  -7.37712740e-01
C     4.416843132247718e+00   4.364012908830521e+00   4.478831207610487e+00  1.39373368e+00   1.92443456e+00  -1.21505365e+00
C     6.178024285641714e+00   6.247817622293923e+00   4.418595784928905e+00  1.44085792e+00  -1.11603224e+00   1.06636165e+00
C     4.460534127786607e+00   6.195078102349357e+00   6.177705899392565e+00 -1.22114150e-01   3.63783980e-01   6.44198210e-01
C     6.231660746352473e+00   4.421968020619833e+00   6.226435913558320e+00  7.63188810e-01   1.34158374e+00  -1.39318951e+00
