72
Lattice="7.395 0 0 3.6975 6.40425786098592 0 0 0 13.6 " PBC="1 1 1" Properties=species:S:1:pos:R:3:force:R:3 Energy="-580.32797828"
C     1.104520376152500e+01   6.389227130845159e+00   1.341370108000000e+01  6.98865960e-01  -5.23129910e-01   1.96992230e-01
C     1.241591252775000e+00   6.233674688066826e-01   1.337361385600000e+01 -1.38832745e+00   2.21112271e+00   3.04130750e-01
C     1.238386222800000e+00   7.577507653139425e-01   3.413267888000000e+00 -2.87941020e-01   1.55117190e-01   4.55306610e-01
C     2.494740520800000e+00   1.398965427797137e+00   3.392941192000000e+00  5.08912900e-02   2.37010106e+00   6.44220310e-01
C     6.208635531600000e+00   6.361895615533459e+00   1.341505727200000e+01 -3.55428236e+00  -4.20774070e-01   3.39217680e-01
C     3.685638604875000e+00   6.355528502369047e-01   1.340212938400000e+01  5.14770720e-01   2.39803854e+00  -9.71292500e-02
C     3.754997271225000e+00   7.805054137034154e-01   3.525553296000000e+00 -1.32419550e-01  -9.93054840e-01  -3.70005610e-01
C     5.004153867825000e+00   1.497062327354794e+00   3.570250240000000e+00 -1.77709017e+00  -1.26870420e-01  -2.37033520e-01
C     8.577230145750001e+00   6.365223908343300e+00   1.337550180800000e+01  2.34015963e+00   1.11517720e+00   6.79364700e-01
C     6.088624738800000e+00   6.973483668815664e-01   1.345071946400000e+01  2.34681283e+00  -5.80930290e-01  -8.99267800e-02
C     6.199751363474999e+00   7.537891554443250e-01   3.569508904000000e+00 -5.57916200e-01   5.60862980e-01  -3.40441180e-01
C     7.389802572149999e+00   1.486610002144067e+00   3.459381680000000e+00  1.84793734e+00   7.00348900e-02   6.30632800e-02
C     1.209814641975000e+00   2.079185927245027e+00   1.335583484800000e+01  6.70289090e-01   3.96479900e-01   4.70040310e-01
C     2.479279868250000e+00   2.775542338626658e+00   1.322684415200000e+01 -1.00383297e+00   7.29330890e-01   1.12149241e+00
C     2.476772149800000e+00   2.838942442078142e+00   3.462559184000000e+00  1.38938309e+00   8.28721000e-02  -1.80579980e-01
C     3.670794436500000e+00   3.585278386267579e+00   3.544813616000000e+00  1.94250547e+00   5.99953290e-01   1.76681320e-01
C     3.699710883150000e+00   2.062357907164355e+00   1.336151883200000e+01 -3.10783250e-01   1.02652832e+00  -6.79737700e-02
C     4.898812980225000e+00   2.818402770312129e+00   1.351024503200000e+01  9.63635430e-01  -2.40688410e-01   9.77632600e-02
C     4.951085129325000e+00   2.917615611801891e+00   3.557727360000000e+00  3.96178310e-01  -5.97111700e-02  -3.85985730e-01
C     6.194415205424999e+00   3.634377077449318e+00   3.497168872000000e+00  2.37959290e-01  -2.37785630e-01   3.16274640e-01
C     6.144788025974999e+00   2.079882326244723e+00   1.359734963200000e+01  1.88154580e-01   2.68105831e+00  -3.39082880e-01
C     7.408520352449999e+00   2.853548504894288e+00   8.915207999999999e-03 -5.42951430e-01  -1.26609176e+00  -1.02494118e+00
C     7.452597288600000e+00   2.911595673456070e+00   3.449077096000000e+00 -1.29346736e+00   7.80306900e-02   1.37642980e-01
C     8.718283854749998e+00   3.597620415845056e+00   3.463313439999999e+00 -3.24673960e+00   1.22560250e-01  -2.21877100e-01
C     2.480363790375000e+00   4.220552907457887e+00   1.326132695200000e+01 -7.97875210e-01   2.02958490e-01   9.36501990e-01
C     3.670933684350000e+00   4.963225424023667e+00   1.339845412000000e+01  1.06917290e+00  -6.68463270e-01  -1.96791320e-01
C     3.677598686925000e+00   5.032971058290576e+00   3.612482184000000e+00  8.01493490e-01  -6.61117400e-01  -6.84584560e-01
C     4.915753631099999e+00   5.780304849897178e+00   3.554784728000000e+00  5.99386780e-01  -2.42634907e+00  -2.06285350e-01
C     4.924874106450000e+00   4.249960170827171e+00   1.351918172800000e+01 -1.99847830e-01   1.91759590e-01  -3.21773800e-02
C     6.184644044024999e+00   4.977565646096044e+00   1.358636382400000e+01 -1.24288851e+00  -9.22133480e-01  -4.72632740e-01
C     6.184865709149999e+00   5.053912020854097e+00   3.535108792000000e+00 -5.90640170e-01   5.94151680e-01  -1.99671350e-01
C     7.427034363524999e+00   5.759316623910650e+00   3.523080136000000e+00 -2.51598000e-03  -6.42831570e-01  -2.46924690e-01
C     7.409581054275000e+00   4.323204194992683e+00   1.358978463200000e+01  9.51331970e-01  -3.14808994e+00  -3.70867600e-01
C     8.653612694025000e+00   5.001705215247741e+00   1.339452943200000e+01 -6.61592080e-01  -3.22986122e+00  -7.27755000e-03
C     8.652865059524999e+00   5.023050606695121e+00   3.489896408000000e+00 -7.92088200e-02  -1.10126840e-01   4.13510960e-01
C     9.856116454124999e+00   5.733092724995836e+00   3.560801232000000e+00  7.28415950e-01   6.30860130e-01   1.50517800e-02
C     7.414567539750000e+00   5.819574734413440e-02   7.111028872000000e+00 -5.74519630e-01  -1.47208477e+00  -1.17756912e+00
C     1.227880257225000e+00   7.337536908996294e-01   6.887225232000000e+00  1.38439779e+00  -3.30299210e-01  -4.18510760e-01
C     1.170250097850000e+00   6.596221646798784e-01   1.018024491200000e+01  3.05690165e+00  -5.22683100e-02   2.36719150e-01
C     2.438780522175000e+00   1.387702835881963e+00   1.022579539200000e+01 -6.11130630e-01  -6.80104340e-01  -2.49481170e-01
C     2.466010723950000e+00   2.108089559776200e-02   6.721484344000000e+00 -2.54544200e-01   2.06299630e-01   3.98371850e-01
C     3.662429323425000e+00   7.787301534246235e-01   6.638920239999999e+00  7.20502060e-01  -4.75023980e-01   4.59543710e-01
C     3.665087012474999e+00   6.975508054725210e-01   1.038573248000000e+01  4.30560700e-02  -1.16826011e+00  -6.64818470e-01
C     4.896996879150000e+00   1.406992780769176e+00   1.028990076000000e+01  3.74837710e-01  -1.04375988e+00  -3.09053410e-01
C     4.872396339374999e+00   5.967212090860021e-02   6.814362144000000e+00  1.58063443e+00  -1.03786719e+00   4.61841970e-01
C     6.146617364099999e+00   7.395699738455028e-01   6.990688727999999e+00 -5.53848250e-01  -8.61105520e-01  -3.67714530e-01
C     6.131190063000000e+00   6.239699173435729e-01   1.029655864000000e+01 -2.72420800e-02   1.34703172e+00  -3.49929690e-01
C     7.384523244675000e+00   1.342073395225563e+00   1.015541240000000e+01 -2.82197604e+00   1.66449682e+00   6.05728360e-01
C     1.284457553475000e+00   2.131978402232679e+00   6.772141896000000e+00 -1.24967957e+00   1.53214451e+00   7.31163410e-01
C     2.474959154625000e+00   2.920087527250694e+00   6.686505416000000e+00  1.24002880e-01  -1.98454220e-01   4.12584320e-01
C     2.441062286400000e+00   2.783140862492391e+00   1.010137334400000e+01 -6.39149780e-01   1.04324931e+00   2.27807740e-01
C     3.657110358750000e+00   3.518665266647731e+00   1.005027746400000e+01  6.63550710e-01   1.28713640e-01   7.53801890e-01
C     3.693841397700000e+00   2.199759850613926e+00   6.596152048000000e+00  4.87116180e-01  -1.04772700e-01   8.10161620e-01
C     4.955040751799999e+00   2.850003491998463e+00   6.703378528000000e+00 -5.52706200e-01   1.73483127e+00   5.08236130e-01
C     4.885118401574999e+00   2.825130315108902e+00   1.010225285600000e+01  5.97011920e-01  -6.76909310e-01   6.01098500e-01
C     6.125681897250000e+00   3.540522102127811e+00   1.018718077600000e+01  1.75738970e-01  -1.22676380e+00   1.13026400e-01
C     6.149346340949999e+00   2.134782250366366e+00   6.895371632000000e+00  1.39221593e+00   5.76240980e-01  -3.67549260e-01
C     7.435077646199999e+00   2.827211506785666e+00   6.903530544000000e+00 -7.32819660e-01  -6.83476210e-01  -5.85544050e-01
C     7.350810918675000e+00   2.817201971963379e+00   1.019712795200000e+01 -7.99060800e-02  -1.87658509e+00  -3.95726050e-01
C     8.578732735799999e+00   3.490943411819464e+00   1.017053872800000e+01  4.93703750e-01   2.58132030e-01   3.82273000e-01
C     9.874695873975000e+00   4.345877317179599e+00   6.890597624000000e+00  8.86412240e-01  -8.54264410e-01  -1.40225410e-01
C     3.780088321350000e+00   5.012225297506628e+00   7.020284232000000e+00 -2.48286622e+00   9.56902860e-01  -9.41953200e-01
C     3.728540734350000e+00   4.947824464721940e+00   1.016520317600000e+01 -2.83895301e+00  -8.32130510e-01  -7.35936400e-02
C     4.932088779375000e+00   5.651068783517157e+00   1.018512173600000e+01 -4.33814080e-01   1.08816210e-01   4.22013800e-01
C     4.983222357300000e+00   4.321603706910890e+00   6.795959576000000e+00 -4.16083170e-01  -1.60772640e+00   3.19382480e-01
C     6.208302830550000e+00   5.011427583147586e+00   6.758968255999999e+00  3.67732790e-01  -1.07580594e+00   4.80957810e-01
C     6.155329783350000e+00   4.934630156508453e+00   1.029895564000000e+01 -1.09873618e+00   4.54217240e-01  -5.36408100e-01
C     7.341817563374999e+00   5.634301539843577e+00   1.043514726400000e+01  2.05243274e+00   1.06713978e+00  -6.99814420e-01
C     7.434167432624999e+00   4.210773477620510e+00   6.827698576000000e+00 -7.41156360e-01   3.14432274e+00  -2.45269850e-01
C     8.613519481350000e+00   5.006892087731134e+00   6.871501320000000e+00  5.76900650e-01   6.08521280e-01  -1.21889610e-01
C     8.572910356500000e+00   4.893013623827129e+00   1.034553360000000e+01  7.94635030e-01   1.15605442e+00  -3.06039940e-01
C     9.832973727675000e+00   5.610536235521217e+00   1.031905562400000e+01  2.96441370e-01   3.28688160e-01  -5.90423770e-01
