72
Lattice="7.395 0 0 3.6975 6.40425786098592 0 0 0 13.6 " PBC="1 1 1" Properties=species:S:1:pos:R:3:force:R:3 Energy="-582.6150579"
C     3.690193703025000e+00   6.270963543499255e+00   1.351007081600000e+01  4.16232500e-02   1.41510926e+00   2.69652830e-01
C     1.231823197275000e+00   6.182135782512690e-01   1.355011343200000e+01 -8.61009700e-01   8.13143700e-02  -2.35189780e-01
C     1.326354332700000e+00   8.367346055864797e-01   3.524494536000000e+00 -9.72176070e-01   9.61476990e-01  -2.24759990e-01
C     2.510932280025000e+00   1.618721964558699e+00   3.581271816000000e+00  8.44961840e-01  -2.08934324e+00  -3.48327440e-01
C     6.147698254274999e+00   6.311153335614527e+00   1.349062825600000e+01 -2.28083720e-01  -7.46477720e-01   2.12296470e-01
C     3.673712910224999e+00   6.051091858181370e-01   1.349342740800000e+01  1.26100840e-01   5.66845440e-01   8.53663600e-02
C     3.735161477849999e+00   8.614271183618101e-01   3.529000760000000e+00  2.47594560e-01  -1.03696823e+00  -1.65196850e-01
C     4.991560404675000e+00   1.535927718944619e+00   3.462786576000000e+00 -1.05211876e+00   2.80855200e-01   3.78834620e-01
C     8.604287674275000e+00   6.316554686693652e+00   1.347058797600000e+01  2.69184780e-01  -1.05611842e+00   2.79071460e-01
C     6.150260621775000e+00   6.117448935571974e-01   1.350000736000000e+01  3.17867200e-02  -1.45459854e+00  -9.80202300e-02
C     6.202354625324999e+00   8.449659341713591e-01   3.431826176000000e+00  1.52386424e+00  -2.65519350e-01   9.49506500e-02
C     7.461276467325000e+00   1.527247131670861e+00   3.479132824000000e+00 -1.66417300e-01   9.40338100e-01   9.48718800e-02
C     1.206017716200000e+00   2.077444033149686e+00   1.357611200800000e+01  8.97978630e-01  -2.58636530e+00  -1.96297450e-01
C     2.433666546900000e+00   2.770169166282118e+00   3.233672000000000e-03  4.53691960e-01  -5.05798200e-01  -3.03695770e-01
C     2.512167060150000e+00   3.024190339829459e+00   3.556053879999999e+00  9.99207490e-01  -7.89282610e-01  -2.41756050e-01
C     3.768422708849999e+00   3.680361249948583e+00   3.480077888000000e+00  2.36004560e-01   1.28647347e+00   1.46785360e-01
C     3.658228297875000e+00   2.025741626892383e+00   1.355296236000000e+01  9.92133850e-01   7.27034010e-01  -5.77567100e-02
C     4.929411234750000e+00   2.734712248810542e+00   1.351167561600000e+01 -1.15496120e+00  -3.52834400e-02  -1.67316000e-02
C     4.993974243599999e+00   2.940186201820468e+00   3.499226960000000e+00 -3.01224730e-01   1.74295433e+00  -3.68858570e-01
C     6.213449528700000e+00   3.704821031993282e+00   3.487666008000000e+00  1.40783740e-01  -3.10388942e+00   5.03078200e-02
C     6.153137498625000e+00   2.009807192910917e+00   1.348238189600000e+01 -6.54294660e-01   3.23758640e-01   1.30445870e-01
C     7.372003287825000e+00   2.703187481622428e+00   1.348694116000000e+01 -5.25893740e-01   1.79847464e+00   4.45676500e-02
C     7.444056877049999e+00   2.968154492491188e+00   3.511601736000000e+00  8.58624990e-01   2.32593420e-01  -6.36536000e-02
C     8.697137260650001e+00   3.700457811113264e+00   3.528647704000000e+00 -1.46647438e+00   3.77375190e-01  -1.06997660e-01
C     2.444513200125000e+00   4.185784703876577e+00   1.356628845600000e+01 -3.89256500e-01  -7.02877210e-01  -7.74625900e-02
C     3.677976164700000e+00   4.852555109052051e+00   1.353960729600000e+01  1.82380100e-01   1.29117531e+00  -1.45410300e-01
C     3.791200935750000e+00   5.140517952661291e+00   3.421272440000000e+00 -5.66321590e-01  -9.43817530e-01   2.78458900e-01
C     5.039568300975001e+00   5.829159795024767e+00   3.449292520000000e+00 -1.30573553e+00  -1.67557350e-01   2.30747160e-01
C     4.907542814700000e+00   4.173702623125636e+00   1.349985449600000e+01  1.57800450e-01  -1.31672935e+00   1.50443100e-01
C     6.127158124125000e+00   4.872419772039621e+00   1.346188479200000e+01  5.53735240e-01   2.39288550e-01  -1.02917520e-01
C     6.222803316300000e+00   5.073336134943476e+00   3.488963039999999e+00  7.73100060e-01   1.96424156e+00  -1.19926200e-02
C     7.450989430725000e+00   5.789927951800193e+00   3.509540112000000e+00  1.37782010e-01   1.97256071e+00  -6.90224400e-02
C     7.340480954099999e+00   4.119840380905049e+00   1.343475048000000e+01  1.40870431e+00   1.67364429e+00   6.07814930e-01
C     8.607246302849999e+00   4.870194612646163e+00   1.350063500000000e+01 -1.19081917e+00   3.04060550e-01  -2.56279260e-01
C     8.704844514525000e+00   5.125286770235432e+00   3.488521720000000e+00 -6.01350160e-01  -3.53767100e-01  -3.53457500e-02
C     9.924977030249998e+00   5.848265041115297e+00   3.432275928000000e+00  6.42003550e-01  -1.03915170e+00   7.10254900e-02
C     7.441547753549999e+00   9.253243203083882e-02   6.863436520000000e+00 -3.57647780e-01  -5.74298650e-01   1.66365940e-01
C     1.254390038100000e+00   8.142041702646853e-01   6.923722599999999e+00  1.04301349e+00  -3.99842490e-01  -2.39624790e-01
C     1.151999866425000e+00   5.867257636310070e-01   1.009703956800000e+01  2.98937640e-01  -1.89822250e-01  -1.07916410e-01
C     2.372881791450000e+00   1.297076375032838e+00   1.014872636800000e+01  7.20999140e-01   5.12864700e-02  -2.26374800e-02
C     2.514858988050000e+00   1.023747516804012e-01   6.891407504000000e+00 -1.11849599e+00  -8.85892900e-02   1.36188240e-01
C     3.750384196275000e+00   7.839771618893214e-01   6.892472384000000e+00  5.65204650e-01   1.73798090e-01   1.03251580e-01
C     3.609866920575000e+00   5.651575040100990e-01   1.012609256800000e+01  6.83125710e-01   1.00058208e+00   8.98884000e-03
C     4.880838175575000e+00   1.307343361021098e+00   1.010412272000000e+01 -2.46416278e+00  -7.49281310e-01   5.76482700e-02
C     5.006036449950000e+00   7.230919464568801e-02   6.882930896000000e+00 -6.00496870e-01   1.08102018e+00  -1.52471310e-01
C     6.239793143925001e+00   8.067480130511803e-01   6.878672600000000e+00 -1.25705042e+00   8.50245570e-01  -5.16502000e-03
C     6.077819386650000e+00   6.307816140886261e-01   1.003904196000000e+01  1.35515450e+00  -1.65371224e+00   1.59183050e-01
C     7.339467802124999e+00   1.297671138460297e+00   1.004202607200000e+01 -8.84610980e-01   1.04743732e+00   2.67932870e-01
C     8.644089597899999e+00   2.223169590539898e+00   6.966131344000000e+00  5.42048900e-02   9.14117710e-01  -3.24151820e-01
C     2.510228793675000e+00   2.895023183264012e+00   6.976422191999999e+00 -6.97563470e-01   1.26710039e+00  -5.48579420e-01
C     2.381235849000000e+00   2.734595435147176e+00   1.016953001600000e+01  6.13893600e-01  -6.42416620e-01  -2.57396980e-01
C     3.627110507625000e+00   3.419591205425796e+00   1.014240604000000e+01 -4.72663090e-01   4.92716590e-01  -7.58822400e-02
C     3.747129767700000e+00   2.211189657701825e+00   6.930636160000000e+00 -6.35318040e-01  -8.15120370e-01   4.31070000e-02
C     4.955005884375000e+00   2.919205276687900e+00   6.926438384000000e+00  4.36200320e-01   1.41099598e+00  -1.81692540e-01
C     4.854963699150000e+00   2.700053045698008e+00   1.011562451200000e+01 -1.57821400e-02   1.16860031e+00  -2.26203180e-01
C     6.065151160050000e+00   3.419893678524524e+00   1.002883924000000e+01  1.23702517e+00   8.50949100e-01   5.48595230e-01
C     6.202854305474998e+00   2.264015498872928e+00   6.902928472000000e+00  4.45049200e-02  -1.29759649e+00  -5.28607300e-02
C     7.409704070100000e+00   3.004900074729353e+00   6.914995208000000e+00  9.92656660e-01  -2.27029053e+00   4.42868900e-02
C     7.336747514399999e+00   2.728390093536307e+00   1.004678634400000e+01 -4.02752550e-01   3.51034740e-01   1.76419460e-01
C     8.577648887624999e+00   3.467329824365808e+00   1.010814274400000e+01 -1.01346094e+00  -1.22528836e+00  -4.06282000e-03
C     9.887574747150000e+00   4.342723668481598e+00   6.898126312000000e+00 -3.79532020e-01  -8.14160940e-01   1.79565200e-01
C     3.689208615075000e+00   5.060533319012972e+00   6.871377423999999e+00  1.71572455e+00   4.36058630e-01   1.32899380e-01
C     3.611150766525000e+00   4.840877008886920e+00   1.007197789600000e+01 -1.36002510e-01   1.10573907e+00   1.11610830e-01
C     4.855322023875000e+00   5.572474194037350e+00   1.006426928000000e+01 -1.01413131e+00  -1.64468370e-01   1.78962370e-01
C     4.935353856750000e+00   4.359684576912866e+00   6.917364464000000e+00  1.50100030e-01  -2.38604910e-01  -2.63069770e-01
C     6.165781654500000e+00   5.084595844942615e+00   6.896659824000000e+00  6.64808180e-01  -2.48236200e-02  -1.25128760e-01
C     6.068905083899999e+00   4.879344888191374e+00   1.006083174400000e+01  4.76033400e-01  -1.94148353e+00   2.91758800e-02
C     7.311570904124999e+00   5.550992519982710e+00   1.008966374400000e+01  7.87731000e-02   8.37705710e-01   1.67988300e-02
C     7.424745204299999e+00   4.393897659422872e+00   6.889765575999999e+00 -6.44150980e-01   4.36098300e-01   1.07351750e-01
C     8.670913777199999e+00   5.070727040291313e+00   6.885854215999999e+00 -6.18261700e-02  -1.33424490e-01  -5.35153800e-02
C     8.567550571424999e+00   4.869680030527112e+00   1.009053904000000e+01 -1.14314294e+00   2.83120480e-01  -5.04408600e-02
C     9.751078909424999e+00   5.600248819950385e+00   1.005218282400000e+01  2.12430121e+00  -5.58857760e-01   2.58395360e-01
