72
Lattice="7.395 0 0 3.6975 6.40425786098592 0 0 0 13.6 " PBC="1 1 1" Properties=species:S:1:pos:R:3:force:R:3 Energy="-580.99270526"
C     1.105325769300000e+01   6.351662636154436e+00   1.347351673600000e+01  1.00168685e+00  -8.29615100e-01  -4.93337600e-01
C     1.174716234150000e+00   6.750246610034929e-01   1.346553448800000e+01  1.65377491e+00  -2.22263473e+00  -2.20236780e-01
C     1.275680945625000e+00   7.864489492529670e-01   3.605747872000000e+00 -2.57055420e-01   3.69743540e-01  -3.41318330e-01
C     2.512783026675000e+00   1.492791712043432e+00   3.624155608000000e+00  3.31247480e-01  -3.06712280e-01  -4.75614410e-01
C     6.124047454349999e+00   6.324038638386269e+00   1.341053785600000e+01  6.60310230e-01   7.05329860e-01   2.76431020e-01
C     3.678076292999999e+00   6.310864567627620e-01   1.351785994400000e+01  1.95126130e-01   1.69546950e-01  -1.15789906e+00
C     3.756819621075000e+00   7.966505477684754e-01   3.541310664000000e+00  1.38307700e-02   4.24288930e-01   4.14654300e-02
C     4.989064074524999e+00   1.549917948324946e+00   3.518059560000000e+00 -9.35997400e-02  -1.01621342e+00  -6.28239450e-01
C     8.638280899350001e+00   6.338088811620166e+00   1.344879220800000e+01 -7.97777740e-01   1.60594390e-01  -2.09975870e-01
C     6.182474166150000e+00   6.838047704443957e-01   1.337505096800000e+01 -2.17034341e+00  -6.91445850e-01   3.08736020e-01
C     6.212205800625000e+00   8.377031215026475e-01   3.493133752000000e+00  1.76949820e-01  -1.25334961e+00  -3.61815400e-02
C     7.450981887824999e+00   1.527546466683237e+00   3.586040928000000e+00 -7.09321610e-01   1.19938440e-01  -1.46471630e-01
C     1.211246387925000e+00   2.060944679582389e+00   1.346201766400000e+01  1.90169800e-02   9.06475760e-01   2.00658830e-01
C     2.459958434100000e+00   2.772842559683196e+00   1.688154400000000e-02 -8.09335200e-01  -4.98705790e-01  -1.12718040e+00
C     2.529478385400000e+00   2.908805978732254e+00   3.589860352000000e+00 -1.08220315e+00   5.51909060e-01   1.40324770e-01
C     3.745652986200000e+00   3.627443763847503e+00   3.523400960000000e+00  5.64356100e-02   2.74306820e-01  -8.03270930e-01
C     3.672554039775000e+00   2.081578942236995e+00   1.347559128000000e+01  1.01765091e+00  -1.05632832e+00   8.88125210e-01
C     4.906229499675000e+00   2.802356774158742e+00   1.334519461600000e+01  1.07846170e-01  -7.20453100e-01  -3.08519460e-01
C     5.014701023550000e+00   2.955198806925565e+00   3.420368176000000e+00 -1.60626578e+00   2.03572600e-01   1.41611945e+00
C     6.210202088399999e+00   3.685399351521888e+00   3.520733048000000e+00 -4.24710100e-02   2.39856110e-01  -1.25712690e-01
C     6.162915463425000e+00   2.108163016613854e+00   1.323032439200000e+01 -1.27285677e+00  -1.55029014e+00   1.00812760e+00
C     7.381914325649999e+00   2.758779065592950e+00   1.326671445600000e+01  1.10378314e+00   1.66337912e+00   8.88015760e-01
C     7.409307402300000e+00   2.961730509516979e+00   3.632269503999999e+00  1.73194982e+00  -3.93099640e-01  -6.07875630e-01
C     8.674124871075000e+00   3.645914347984108e+00   3.605637984000000e+00  4.47930070e-01  -5.41554370e-01   1.20383430e-01
C     2.466909290400000e+00   4.171186262127285e+00   1.359520532000000e+01 -6.72142680e-01   1.07975384e+00  -8.94623660e-01
C     3.685284902025000e+00   4.885536716818158e+00   1.349472716000000e+01 -3.09857450e-01   1.67863097e+00  -1.18631600e-02
C     3.700653043125000e+00   5.044500899886248e+00   3.463416120000000e+00  1.26457651e+00   7.88790460e-01   2.15999250e-01
C     4.953969068399999e+00   5.767966919044731e+00   3.519490144000000e+00 -8.43508310e-01   1.01573480e+00  -5.88832700e-02
C     4.905330896250000e+00   4.210499311341524e+00   1.331098708000000e+01  5.69499950e-01  -1.05493690e-01   4.22938250e-01
C     6.161330382149999e+00   4.910596513781759e+00   1.322197861600000e+01 -5.01200990e-01   3.51032780e-01   1.33286204e+00
C     6.190151322375000e+00   5.130541463809562e+00   3.533123872000000e+00  6.89517830e-01  -2.35183693e+00  -2.53591080e-01
C     7.439173995525000e+00   5.776415992396850e+00   3.505992960000000e+00  6.32863450e-01   8.52372670e-01   6.72343600e-01
C     7.397830584149999e+00   4.192238594734992e+00   1.331354020800000e+01 -4.37451610e-01   3.03077400e-01  -4.67997230e-01
C     8.620009185450000e+00   4.895791918971955e+00   1.342059954400000e+01  7.09229580e-01   6.39396530e-01   8.95308690e-01
C     8.689804563525000e+00   5.054441204681068e+00   3.552467560000000e+00 -1.17767835e+00   5.86588630e-01  -7.95208340e-01
C     9.889805744700000e+00   5.787243094777545e+00   3.433844144000000e+00  4.14546300e-01   3.70191490e-01   8.45922870e-01
C     3.235227457500000e-02   5.071960884610621e-02   6.600818752000000e+00 -8.21895700e-01   1.25523998e+00   1.02636975e+00
C     1.265915737200000e+00   7.411546434103813e-01   6.795170640000000e+00 -3.90763640e-01   1.50335343e+00   4.00390290e-01
C     1.181992063725000e+00   6.290561148934063e-01   1.018393948800000e+01 -8.27560090e-01   1.01572590e-01   5.44337110e-01
C     2.411442057600000e+00   1.363146029330686e+00   1.020906263200000e+01  2.79256530e-01  -1.57169891e+00  -1.26887140e-01
C     2.472339623775000e+00   3.488367235052700e-02   6.983649776000000e+00  1.20546481e+00   7.42836480e-01  -2.42188900e-01
C     3.717548732400000e+00   8.033118084963973e-01   7.108305608000000e+00 -9.07439700e-01  -8.14058540e-01  -1.29786766e+00
C     3.659202589125000e+00   6.456410933882910e-01   1.008067373600000e+01 -1.10488523e+00  -1.13143991e+00  -4.75043140e-01
C     4.858169320725000e+00   1.340378060084864e+00   1.006796698400000e+01  1.28068690e+00   1.92851260e-01   1.44406486e+00
C     4.900936010775000e+00   7.536037521792781e-02   6.811885176000001e+00  6.40481260e-01  -5.60576120e-01   7.74772900e-01
C     6.131927048700000e+00   7.514391130225980e-01   6.693172135999999e+00  1.79975654e+00   5.39006340e-01   1.30259960e-01
C     6.104966616525000e+00   6.037640354972227e-01   1.012755416000000e+01 -8.21854620e-01   8.00853320e-01  -2.88040040e-01
C     7.307898066449999e+00   1.304401437087949e+00   1.024380437600000e+01  1.67569855e+00   1.01424166e+00  -5.70764320e-01
C     8.654763688799999e+00   2.217302649914352e+00   6.885279208000000e+00  1.24204987e+00  -2.05748622e+00  -3.38854010e-01
C     2.487155062575000e+00   2.957580358295964e+00   6.957446112000000e+00  4.72800670e-01  -1.37359479e+00   7.49040090e-01
C     2.413211755050000e+00   2.753396799202249e+00   1.031407612000000e+01 -6.38319140e-01   8.67945410e-01  -4.18371220e-01
C     3.654309835275000e+00   3.444605596201169e+00   1.033449257600000e+01 -1.04764429e+00   1.71740664e+00  -3.80340380e-01
C     3.734485279049999e+00   2.233604175956353e+00   7.147694607999999e+00 -1.14182994e+00  -5.06617990e-01  -1.52123107e+00
C     4.954737187050000e+00   2.911173120522467e+00   6.987288728000000e+00  7.25280470e-01  -1.13819030e-01  -5.13660830e-01
C     4.858536038775000e+00   2.747471387702441e+00   1.029475324000000e+01  1.46650127e+00   5.52512390e-01  -8.28795520e-01
C     6.115975959749999e+00   3.500799436580847e+00   1.024885745600000e+01 -5.51478100e-01  -1.53179177e+00  -6.54637610e-01
C     6.181020826800000e+00   2.166033235530965e+00   6.807997888000000e+00 -3.03265630e-01   3.94424100e-01   5.86228670e-01
C     7.438027252874999e+00   2.862067128486766e+00   6.836651863999999e+00 -1.19613105e+00   1.54940140e+00   7.12705100e-02
C     7.335041524875000e+00   2.741973204244474e+00   1.022333488000000e+01 -9.07043370e-01   2.91684760e-01   2.23678180e-01
C     8.538125274824999e+00   3.463115694608771e+00   1.023794576800000e+01  1.60044128e+00  -1.28208540e-01  -7.00214150e-01
C     9.895094796599999e+00   4.353774983929972e+00   6.839419056000001e+00 -4.16729800e-02   5.79796520e-01  -6.50048990e-01
C     3.742903636124999e+00   5.071487417827030e+00   6.702575992000000e+00 -5.87763100e-02  -1.90944133e+00   8.63279310e-01
C     3.636528631725000e+00   4.910027111215427e+00   1.026771630400000e+01  4.34404670e-01  -1.12422790e+00  -1.38016720e-01
C     4.862334480525000e+00   5.616199392661659e+00   1.022316352000000e+01  1.23929854e+00  -2.14157270e-01  -6.89306950e-01
C     4.966463179725000e+00   4.328307748081317e+00   6.854635416000001e+00  1.56127010e-01   4.45239310e-01   1.00427830e-01
C     6.222043221224999e+00   5.013587034855399e+00   6.921342872000000e+00 -1.02004870e+00   4.91498800e-01  -3.98970490e-01
C     6.125882301750000e+00   4.899709403504916e+00   1.010357450400000e+01 -4.33687510e-01   3.68678980e-01   5.76663410e-01
C     7.381453173450000e+00   5.589973636512066e+00   9.948082984000001e+00 -2.30859737e+00   1.42947715e+00   1.14080375e+00
C     7.450122625800001e+00   4.308404531461431e+00   6.901558680000000e+00 -7.03891510e-01  -7.22596400e-01  -2.02103320e-01
C     8.643648855900000e+00   5.036473482871631e+00   6.810547479999999e+00  2.22599920e-01   5.59425350e-01   2.29869640e-01
C     8.558582691900000e+00   4.873421077756031e+00   1.001907824800000e+01  1.66797990e+00  -6.45220000e-04   9.20865480e-01
C     9.815436670050000e+00   5.614398963649476e+00   1.011237574400000e+01 -9.06363900e-01  -1.49087634e+00   1.26863780e-01
