72
Lattice="7.395 0 0 3.6975 6.40425786098592 0 0 0 13.6 " PBC="1 1 1" Properties=species:S:1:pos:R:3:force:R:3 Energy="-581.20539874"
C     3.669233610825000e+00   6.267484366374232e+00   1.353176975200000e+01  1.26489582e+00  -1.78230897e+00  -1.77019220e-01
C     1.198693264500000e+00   5.648053338703777e-01   1.355088033600000e+01  8.30613170e-01  -1.65859193e+00   2.46903500e-02
C     1.352487264375000e+00   9.701563668186391e-01   3.545021696000000e+00  5.10539250e-01  -4.29086860e-01  -1.75297600e-01
C     2.606554362825000e+00   1.635913298187769e+00   3.572586856000000e+00 -8.86753690e-01   2.32790659e+00  -4.36537320e-01
C     6.119124935625000e+00   6.217633623191992e+00   1.355904400800000e+01  1.60624978e+00   1.67296240e+00  -3.73257940e-01
C     3.690110768100000e+00   5.603952338228244e-01   1.350953905600000e+01 -3.93771060e-01  -5.61347260e-01   3.34380030e-01
C     3.818911886475000e+00   9.393517584268818e-01   3.566529688000000e+00  1.30454888e+00   2.05562463e+00   2.45222750e-01
C     5.066367300300000e+00   1.695210898096716e+00   3.606933792000000e+00 -1.04025230e-01  -7.58552280e-01  -7.31147730e-01
C     8.633961923550000e+00   6.222890942511844e+00   1.354359889600000e+01 -1.25331714e+00   2.04699340e-01  -5.71646950e-01
C     6.176971176900000e+00   5.235848404951164e-01   1.357747051200000e+01 -2.15439215e+00   2.14665132e+00   9.47349000e-03
C     6.307119590325000e+00   9.628935541499274e-01   3.542937904000000e+00 -1.06748396e+00   8.84462600e-02   2.49281100e-01
C     7.523365146150000e+00   1.675652806932905e+00   3.512945824000000e+00  1.72450230e-01   8.85696150e-01   1.64701680e-01
C     1.240209127275000e+00   1.934734689083797e+00   1.356246835200000e+01 -1.84944875e+00   2.65521411e+00   3.87953000e-03
C     2.459595968175000e+00   2.675208303713346e+00   1.351364938400000e+01 -6.73677060e-01  -3.23292760e-01  -1.88313840e-01
C     2.606287440300000e+00   3.110884522309965e+00   3.538554216000000e+00 -1.11799500e-02  -1.61186652e+00   3.01319250e-01
C     3.836801537700000e+00   3.811308726156532e+00   3.614129960000000e+00 -8.55721560e-01   2.17109800e-02  -7.62276390e-01
C     3.675350015325000e+00   2.016479661090094e+00   1.349088543200000e+01  1.19469720e+00  -2.50054272e+00   9.29002650e-01
C     4.901465825550000e+00   2.716503919033304e+00   5.559244800000000e-02  2.88361040e-01  -2.15893020e+00  -6.70146600e-01
C     5.070318226950000e+00   3.135983065033619e+00   3.579837152000000e+00 -9.64207120e-01  -2.81868646e+00   5.78862590e-01
C     6.278357921025000e+00   3.776178233708080e+00   3.594228672000000e+00  1.92311884e+00   3.34891019e+00  -5.76345480e-01
C     6.155926264049999e+00   1.987596266013758e+00   5.740043199999999e-02 -1.15202872e+00  -1.05068928e+00  -1.75959970e-01
C     7.350299184674999e+00   2.685079570608435e+00   2.477498400000000e-02  2.43874849e+00  -1.55921990e-01   1.17489940e-01
C     7.526426898000000e+00   3.116570862863859e+00   3.518612264000000e+00 -5.00758290e-01  -1.60391456e+00   9.85805800e-02
C     8.759146628100000e+00   3.815810791346955e+00   3.497794200000000e+00  1.66107120e-01  -8.38195770e-01   6.03480840e-01
C     2.466741645750000e+00   4.064822298225890e+00   1.347027463200000e+01 -1.33658793e+00   2.39662994e+00  -1.28952230e-01
C     3.680418807150000e+00   4.826218110943429e+00   1.346998862400000e+01 -5.46174290e-01  -6.28677490e-01   8.64935080e-01
C     3.812396595675000e+00   5.210592765782204e+00   3.557147864000000e+00  9.14037000e-01   1.33908871e+00   1.79939890e-01
C     5.053761820275000e+00   5.959081565293857e+00   3.549155280000000e+00 -1.32431600e-01  -8.39380360e-01   5.90484500e-02
C     4.881176274975000e+00   4.084606523734737e+00   4.378982400000000e-02  1.56598787e+00   2.68334640e+00  -7.28347150e-01
C     6.150356276099999e+00   4.820480408241498e+00   8.025224000000001e-03 -9.99307860e-01  -6.33034700e-01   5.87084120e-01
C     6.297910411949999e+00   5.259386358119494e+00   3.565693968000000e+00 -1.02043730e+00  -1.35552703e+00  -1.95331000e-03
C     7.511351820750000e+00   5.966596513594517e+00   3.551680936000000e+00  9.31251700e-01  -2.38574967e+00   3.24704310e-01
C     7.388135332425000e+00   4.126837737085464e+00   4.201434400000000e-02 -1.69555535e+00  -1.50471839e+00  -9.10096530e-01
C     8.578635491549999e+00   4.785967222208172e+00   1.346088478400000e+01  2.92761050e+00   1.27072140e+00   1.04992264e+00
C     8.742671899199999e+00   5.198196107885181e+00   3.592179696000000e+00  6.24257470e-01   2.54132380e+00  -7.66922700e-01
C     9.995853409424999e+00   5.927569670664042e+00   3.557504320000000e+00 -1.04913651e+00  -1.18118400e-02   1.39848900e-01
C     7.404085866750000e+00   1.441488291050808e-01   7.090208767999999e+00  1.29117210e-01   4.71235500e-01  -7.97897750e-01
C     1.243951477950000e+00   8.430200004205981e-01   6.973578295999999e+00  2.78390930e-01   1.25492560e+00  -2.95863800e-01
C     1.075303289475000e+00   4.760243239661910e-01   9.910239895999998e+00  2.15615627e+00  -2.06502290e-01   7.71833510e-01
C     2.337911945700000e+00   1.195203460998347e+00   9.971449280000000e+00 -2.40046010e-01  -5.43875560e-01   1.34036500e-02
C     2.477564745900000e+00   1.607359850476380e-01   6.836889999999999e+00  1.47897480e-01  -1.48376610e+00   3.74958270e-01
C     3.726860442450000e+00   8.639702491580160e-01   6.788396616000000e+00 -9.68723370e-01   9.92095000e-02   4.14030280e-01
C     3.595447188225000e+00   4.970866472161590e-01   1.008862796800000e+01 -2.92305316e+00  -1.03938687e+00  -5.03336790e-01
C     4.768537113974999e+00   1.179098993970698e+00   1.000831180800000e+01  3.15102740e+00   1.24928659e+00  -1.92669550e-01
C     4.941648295874999e+00   1.615245413179398e-01   6.921481591999999e+00  8.71186700e-02  -1.19404978e+00   1.06315370e-01
C     6.159483887625000e+00   8.752623006593466e-01   7.044519432000000e+00  4.44150310e-01  -2.11972889e+00  -6.37586330e-01
C     6.038203484249999e+00   4.553992194003252e-01   9.979783632000000e+00 -8.51812280e-01   1.25997627e+00   2.12129480e-01
C     7.261647887700001e+00   1.162576200819634e+00   9.908701735999999e+00 -7.71420890e-01   1.27964679e+00   7.61073300e-02
C     8.643997160400000e+00   2.299175194737221e+00   6.960735680000000e+00  6.29899790e-01  -1.09843650e+00  -7.14464300e-01
C     2.484434035350000e+00   3.032509214619285e+00   6.834035767999999e+00 -5.31269310e-01  -2.23749084e+00   6.86329650e-01
C     2.335108797000000e+00   2.609200066248376e+00   9.899497391999999e+00  4.37686270e-01  -7.41478530e-01   3.90665450e-01
C     3.558616242825000e+00   3.311169681559140e+00   9.859373991999998e+00  5.64463100e-01   1.11801063e+00   5.26802070e-01
C     3.692845587000000e+00   2.284364323754713e+00   6.788330928000000e+00  1.64842399e+00   1.30914321e+00   1.63042420e-01
C     4.947761224725000e+00   3.032913003077358e+00   6.847166976000000e+00 -1.09035230e-01  -2.58321502e+00   1.19986110e-01
C     4.796644547625000e+00   2.614613393289698e+00   9.887239304000000e+00  1.75565870e-01  -1.96353540e-01   5.48253590e-01
C     6.057343445099999e+00   3.329193376582273e+00   9.933481887999999e+00 -1.12072145e+00  -7.12692340e-01  -2.51303720e-01
C     6.182379547125000e+00   2.237949144701470e+00   6.941902400000001e+00 -5.57132240e-01   3.69440449e+00  -1.91449170e-01
C     7.425605094899999e+00   2.971251335421970e+00   6.962936295999999e+00 -7.28248910e-01   9.89570840e-01  -2.96704190e-01
C     7.268868846374999e+00   2.603760609834985e+00   9.887562032000000e+00  3.72353930e-01  -5.05363210e-01   8.91162910e-01
C     8.509565230200000e+00   3.291007989092023e+00   9.954662256000001e+00 -1.13024065e+00   1.89498684e+00  -3.26643900e-02
C     9.874907223074999e+00   4.406547925931151e+00   6.986305176000000e+00  9.59842330e-01   1.53338091e+00  -5.80724110e-01
C     3.732886886775000e+00   5.146650093604820e+00   7.019925464000000e+00 -9.99052820e-01  -7.16509240e-01  -4.53639470e-01
C     3.545775453900000e+00   4.763018716933277e+00   9.885550592000000e+00  1.79660370e+00  -1.32955762e+00   4.59460480e-01
C     4.794899512500000e+00   5.463475710580088e+00   9.937532920000001e+00 -6.51766800e-02  -7.32459490e-01  -6.49238700e-02
C     4.969701043500000e+00   4.442848092035153e+00   6.902521151999999e+00 -1.43990823e+00  -9.71347320e-01   3.74460200e-02
C     6.176970918075000e+00   5.099613125155949e+00   6.879053672000000e+00  1.83771448e+00   2.73668673e+00  -1.54278220e-01
C     6.038475657225000e+00   4.733273949174771e+00   9.973575912000001e+00 -3.32154700e-02   1.42100684e+00   4.55360520e-01
C     7.269338798624999e+00   5.472058248666009e+00   1.009847096800000e+01 -6.23891600e-02  -8.37250150e-01  -4.02454900e-01
C     7.441783691025000e+00   4.430015688433335e+00   6.902273223999999e+00 -2.14246284e+00  -2.18723808e+00   3.24699900e-02
C     8.639060517224999e+00   5.099973172532839e+00   6.960479864000000e+00  1.06295911e+00   2.38387824e+00  -1.53722170e-01
C     8.485539503775000e+00   4.745343285452570e+00   1.005029283200000e+01  9.32073550e-01  -4.79711170e-01  -2.45179140e-01
C     9.751849172624999e+00   5.466381898754377e+00   9.989378975999999e+00 -2.11858185e+00  -7.43104940e-01   2.06689330e-01
