72
Lattice="7.395 0 0 3.6975 6.40425786098592 0 0 0 13.6 " PBC="1 1 1" Properties=species:S:1:pos:R:3:force:R:3 Energy="-571.04881362"
C     3.671372836425000e+00   6.191228483779740e+00   1.354152285600000e+01  1.51822209e+00   1.64487644e+00   1.00529665e+00
C     1.156007106000000e+00   6.458623604973541e-01   4.964000000000000e-02  1.90026664e+00  -6.57108526e+00  -8.37775410e-01
C     1.454469564825000e+00   9.775756995494490e-01   3.746327808000000e+00 -2.61042182e+00   1.44259480e-01  -4.38031790e-01
C     2.614849149449999e+00   1.775950145448679e+00   3.897864992000000e+00 -4.36989080e-01  -9.21163400e-01  -1.01308620e-01
C     6.054774902775000e+00   6.194008700201923e+00   1.346553149600000e+01  3.24553719e+00   1.89094045e+00   2.83696850e-01
C     3.631962552000000e+00   5.688447554729941e-01   1.344326979200000e+01  1.36138427e+00  -6.13549270e-01   9.09938040e-01
C     3.773358575550000e+00   9.576509646231528e-01   3.786403608000000e+00  3.44178250e+00   3.32225944e+00  -1.43430380e+00
C     5.041939027049999e+00   1.712132356299565e+00   3.517190928000000e+00  7.82049770e-01  -3.06477930e-01   2.24915924e+00
C     8.706959706374999e+00   6.244173380104460e+00   1.329743903200000e+01 -5.08552958e+00  -1.05665022e+00   1.89383005e+00
C     6.223383638924999e+00   5.563155294382686e-01   1.344037992800000e+01 -2.87766593e+00  -7.45955630e-01  -4.27465770e-01
C     6.322012824525000e+00   1.047298214445483e+00   3.478593856000000e+00 -1.37183845e+00  -1.72577158e+00  -5.69977100e-02
C     7.555404612224999e+00   1.648860402047859e+00   3.707158447999999e+00  1.58308648e+00   3.72576218e+00   4.61086200e-02
C     1.218928239975000e+00   2.001527256008881e+00   9.069921600000000e-02 -1.11227711e+00  -2.15148000e-02  -1.10083330e-01
C     2.424792990600000e+00   2.727493241265593e+00   1.569958160000000e-01  1.01942046e+00  -4.50363730e+00   3.16169210e-01
C     2.620559864250000e+00   3.245892554171468e+00   3.912139416000000e+00  5.81923820e-01  -3.65740073e+00  -1.54676551e+00
C     3.901292556224999e+00   3.788982010277264e+00   3.514885728000000e+00 -3.61031801e+00   3.55176595e+00   2.03318283e+00
C     3.656728998599999e+00   2.027519512916898e+00   1.703669280000000e-01  8.59155670e-01  -3.22635462e+00  -3.06222843e+00
C     4.897947728249999e+00   2.701001516287074e+00   1.342090840000000e+01  2.54488110e-01  -4.99519528e+00   1.24044166e+00
C     5.129930061450000e+00   3.164252355823760e+00   3.673330216000000e+00 -4.97812338e+00  -5.52476290e+00  -1.79023273e+00
C     6.253086248024999e+00   3.800789796664060e+00   3.606634184000000e+00  7.50846389e+00   3.79609843e+00   7.35344110e-01
C     6.181021640250000e+00   1.990786611109296e+00   1.337992289600000e+01 -3.01849191e+00  -2.88900997e+00   4.68750100e-01
C     7.356259591649999e+00   2.614067686477447e+00   1.350038897600000e+01  2.39249964e+00   2.79315429e+00  -1.09680409e+00
C     7.542544818150000e+00   3.167025911817768e+00   3.801595352000000e+00 -2.05760721e+00  -3.54064890e+00  -3.48087950e-01
C     8.721590196224998e+00   3.900769227819664e+00   3.896439984000000e+00  3.20386747e+00  -2.59110120e+00  -1.23139379e+00
C     2.474937746100000e+00   4.033102521385938e+00   5.205359200000000e-02 -2.52836473e+00   6.15741631e+00  -1.44993500e-02
C     3.688188031125000e+00   4.757974531315005e+00   7.609200000000001e-02  7.76385450e-01   6.13211090e-01  -1.80704299e+00
C     3.867511937400000e+00   5.222399847700636e+00   3.412533896000000e+00  1.03767317e+00   2.22222798e+00  -2.40987400e-02
C     5.161252323449999e+00   5.942799700323486e+00   3.502697000000000e+00 -2.63593389e+00   1.65023229e+00   6.87052500e-01
C     4.921698323699999e+00   4.011672721819964e+00   1.341431770400000e+01 -1.07081140e-01   5.83946769e+00   9.85882660e-01
C     6.168894283949999e+00   4.746162838330914e+00   1.332490124000000e+01 -1.88781095e+00   8.50154000e-01  -6.00704510e-01
C     6.345912761999999e+00   5.264454303534427e+00   3.605941264000000e+00 -8.88226340e-01  -2.17887139e+00   1.94980450e-01
C     7.525043182575001e+00   5.977659933090245e+00   3.724904272000000e+00  2.11892266e+00  -1.59034499e+00  -1.40939253e+00
C     7.389860031300000e+00   3.990021847272661e+00   1.319898482400000e+01 -5.53335130e-01   3.53018219e+00   2.87646532e+00
C     8.548921531125000e+00   4.764193834208009e+00   1.349846702400000e+01  3.87853361e+00   1.29751591e+00  -1.97084140e+00
C     8.807623330424999e+00   5.184815371725390e+00   3.532516360000000e+00 -1.04095801e+00   7.65440516e+00   8.22663000e-01
C     1.004197084792500e+01   6.028692774188285e+00   3.380855144000000e+00 -6.70994110e-01  -4.09075858e+00   8.20532450e-01
C     7.412437668825000e+00   1.378542761822226e-01   6.914184648000001e+00  5.66933240e-01   2.39432656e+00   1.96875000e-01
C     1.235226413250000e+00   8.613564153550357e-01   7.029843536000000e+00 -2.40392570e-01   2.66633934e+00  -5.63388540e-01
C     1.061619100800000e+00   4.199790623688660e-01   9.848516432000000e+00  2.01420936e+00   1.81841775e+00  -2.97128520e-01
C     2.294979385800000e+00   1.169819032203822e+00   1.004843860800000e+01  1.06111737e+00  -1.60690531e+00  -3.65819000e-01
C     2.451275003250000e+00   2.020963474145616e-01   6.961055823999999e+00  2.36122021e+00  -2.56873400e+00  -4.55299420e-01
C     3.792073102050000e+00   8.782244620473324e-01   6.927735687999999e+00 -3.37444258e+00  -5.92184930e-01   4.78271850e-01
C     3.611832437625000e+00   4.175483262981030e-01   9.999402176000000e+00 -6.16837405e+00  -9.10350800e-01   5.12995700e-01
C     4.754201314875000e+00   1.078191457766023e+00   9.961864000000000e+00  4.67438089e+00   2.96718228e+00  -1.05887183e+00
C     5.007966951675000e+00   1.605785043468606e-01   6.916459111999999e+00 -1.50558530e-01   4.47606490e-01  -4.79626580e-01
C     6.232773033450000e+00   9.178244220136993e-01   6.921561016000000e+00 -1.36381552e+00  -3.42203175e+00  -1.44009730e-01
C     6.026394038999999e+00   4.567763910105396e-01   9.726501720000000e+00 -1.01471684e+00  -3.04151950e-01   5.89332290e-01
C     7.259181729149999e+00   1.097482043079022e+00   9.638500471999999e+00 -9.16326700e-01   3.20439831e+00   1.98916699e+00
C     8.579658848625000e+00   2.379832787801469e+00   7.101922448000000e+00  3.79236049e+00  -2.56749444e+00   8.30986700e-02
C     2.494822605300000e+00   3.068556988921024e+00   7.186858528000000e+00 -1.74143908e+00  -4.75033706e+00  -2.09953381e+00
C     2.301631151325000e+00   2.609978247620945e+00   1.009782551200000e+01  8.38381980e-01  -4.16143241e+00  -1.72135810e-01
C     3.546217563975000e+00   3.199389124444914e+00   1.007280899200000e+01  1.08090260e+00   4.00313212e+00  -1.49018107e+00
C     3.685220232750000e+00   2.282015626227137e+00   6.993325496000000e+00  2.60020575e+00   2.23567005e+00   6.84495240e-01
C     4.952749928699999e+00   3.074786026285974e+00   6.991408168000000e+00 -1.25410026e+00  -5.40733924e+00  -4.07973810e-01
C     4.776589085774999e+00   2.483772099677068e+00   9.899062600000001e+00 -9.46219360e-01   2.77333273e+00   2.41298610e-01
C     5.962573118400000e+00   3.294941484269636e+00   9.642750471999999e+00  1.59963838e+00  -3.02423920e+00   2.33420132e+00
C     6.225596888475000e+00   2.254064691095217e+00   7.009480392000000e+00 -1.43585345e+00   6.66582249e+00  -6.47097370e-01
C     7.427204559449999e+00   3.095959655537549e+00   7.059755784000000e+00 -1.71852907e+00  -8.90413990e-01  -8.67196770e-01
C     7.232962349924999e+00   2.531223807864952e+00   9.742439559999999e+00  1.15565897e+00   1.60117655e+00  -1.13970090e-01
C     8.526627343949999e+00   3.262085592085320e+00   9.884947024000001e+00 -4.34793685e+00   2.18663706e+00   6.43457330e-01
C     9.836119080000000e+00   4.395543553692892e+00   6.963697624000000e+00  2.86254321e+00   2.99359413e+00   5.23361880e-01
C     3.668705238075000e+00   5.183487000560069e+00   6.942467071999999e+00 -3.82454020e-01  -2.93868730e+00  -6.15712420e-01
C     3.471200132700000e+00   4.699679966272091e+00   9.803636023999999e+00  3.79196855e+00  -3.59593680e-01   6.28709960e-01
C     4.745767650149999e+00   5.464731713631591e+00   9.708536391999999e+00  5.24901940e-01  -4.74741952e+00   1.60436217e+00
C     4.863864986699999e+00   4.434272278419984e+00   6.946836887999999e+00  2.91532533e+00   1.26758685e+00  -2.44059250e-01
C     6.149695791674999e+00   5.085264257335463e+00   6.905263592000001e+00 -6.96443260e-01   5.34706874e+00   2.85987820e-01
C     6.001461315824999e+00   4.673406946699491e+00   9.780024384000001e+00 -3.25161210e-01   2.81297870e+00  -5.28274000e-03
C     7.286889130274999e+00   5.405215600444460e+00   9.910487823999999e+00 -2.61776864e+00  -7.24123350e-01  -6.17720200e-02
C     7.432003840500000e+00   4.554829742846183e+00   6.964145336000000e+00 -1.96912343e+00  -4.80367508e+00   5.81749100e-02
C     8.677235688749999e+00   5.118941495590322e+00   6.941888391999999e+00 -1.07195109e+00   3.72743024e+00  -3.31821990e-01
C     8.485440928425000e+00   4.729634665603248e+00   9.940981472000001e+00  1.00574495e+00  -1.26595498e+00  -7.78092180e-01
C     9.714310155974999e+00   5.495721981458709e+00   9.795492480000000e+00 -1.10809396e+00  -3.99984955e+00   1.03119856e+00
