72
Lattice="7.395 0 0 3.6975 6.40425786098592 0 0 0 13.6 " PBC="1 1 1" Properties=species:S:1:pos:R:3:force:R:3 Energy="-568.62103782"
C     1.096877795250000e+01   6.274436636579312e+00   1.351784607200000e+01  2.85397744e+00   2.13663256e+00  -1.94514670e+00
C     1.283395335675000e+00   4.992995744771034e-01   1.345128223200000e+01 -4.38482459e+00   3.16496889e+00   2.52483820e-01
C     1.276635344325000e+00   8.818023287859786e-01   3.728705200000000e+00  3.56954540e-01   5.96157700e-02   8.75431400e-02
C     2.570025429225000e+00   1.500579289601192e+00   3.823266136000000e+00 -2.57416050e-01   1.25077319e+00  -5.98142870e-01
C     6.233324293725000e+00   6.235954924077880e+00   1.333878017600000e+01 -5.19337250e+00   2.40434598e+00   5.84346660e-01
C     3.684802341299999e+00   5.180952387426816e-01   1.347462744800000e+01 -1.87975183e+00   3.01316309e+00  -1.65010720e-01
C     3.875502087000000e+00   9.195417878014368e-01   3.678125303999999e+00 -7.38388600e-01  -5.07308380e-01  -1.32743900e-02
C     5.146004942699999e+00   1.636787031087608e+00   3.619608176000000e+00 -5.24051130e+00   1.11441082e+00  -1.30641177e+00
C     8.539793845649999e+00   6.352083011640366e+00   1.335492772800000e+01  4.06265104e+00  -5.17808846e+00  -6.20102140e-01
C     5.993385384224999e+00   6.055298174743818e-01   1.323590420000000e+01  7.16358647e+00   2.29237322e+00   1.06145906e+00
C     6.260383079399999e+00   8.537982383138210e-01   3.500032896000000e+00  4.01083500e-01   3.63852967e+00   4.41061350e-01
C     7.428367866900000e+00   1.557709048224529e+00   3.721459120000000e+00  3.77088065e+00   4.15667561e+00   1.25790810e-01
C     1.224265211475000e+00   1.993530643474571e+00   1.349621962400000e+01 -9.91714070e-01  -1.02747770e-01  -5.13484680e-01
C     2.435172649575000e+00   2.680462356861690e+00   1.280169360000000e-01  1.90695147e+00   1.08887980e-01  -1.22637738e+00
C     2.519212165725000e+00   2.885869961760186e+00   3.807018623999999e+00  4.50463865e+00   1.39571861e+00  -4.88501070e-01
C     3.721499843925000e+00   3.642185148632231e+00   3.586818712000000e+00  1.40223194e+00   2.93853407e+00  -1.11495220e+00
C     3.697537196850000e+00   1.871721210679320e+00   1.355858188000000e+01 -5.33097320e-01   6.82828034e+00  -3.71195130e-01
C     4.898391539175000e+00   2.730706449561691e+00   1.317318508000000e+01 -9.69527460e-01  -1.52440480e-01   1.32818270e+00
C     5.017380306000000e+00   3.075679292172287e+00   3.405594632000000e+00  1.17123839e+00  -1.40738334e+00   2.71142203e+00
C     6.244323616725000e+00   3.845395964999589e+00   3.563537144000000e+00  1.83149307e+00  -2.40193384e+00   5.36949850e-01
C     6.134090973600000e+00   2.024417418494671e+00   1.304045275200000e+01 -3.84743600e-02   1.16857288e+00   1.24352313e+00
C     7.399573585650000e+00   2.803913072861301e+00   1.314935488800000e+01  5.20437750e-01  -2.89369214e+00   1.13135917e+00
C     7.578751292774999e+00   3.139240718879265e+00   3.865558736000000e+00 -5.62996935e+00  -4.31180103e+00  -1.98152982e+00
C     8.836981110674998e+00   3.690853665813514e+00   3.854015056000000e+00 -4.37804378e+00   2.78881124e+00  -8.12941620e-01
C     2.513828235975000e+00   4.133553113792303e+00   1.160405040000000e-01 -3.36809734e+00  -1.04879530e-01  -1.90208816e+00
C     3.671371616250000e+00   4.892587996849754e+00   1.355974277600000e+01  1.09278589e+00  -1.49331548e+00  -2.99609000e-01
C     3.717518375925000e+00   5.186212908875599e+00   3.448070016000000e+00  3.80503090e-01  -1.97178230e+00   8.31325050e-01
C     4.942369234425000e+00   5.911847345702899e+00   3.607005056000000e+00  6.16636630e-01  -2.64559797e+00  -9.47763370e-01
C     4.878751121700000e+00   4.210614075642375e+00   1.320462705600000e+01  1.34394297e+00  -7.91482460e-01   5.33345600e-02
C     6.143685912150000e+00   4.974024795967828e+00   1.296716303200000e+01  7.73161910e-01  -6.79130169e+00   1.84348293e+00
C     6.214904531925000e+00   5.212883440733569e+00   3.604141440000000e+00  2.82706010e-01   1.93003787e+00   1.04642200e-02
C     7.493153502225001e+00   5.917791521678237e+00   3.606255152000000e+00  7.15866040e-01  -2.80756033e+00   4.95497240e-01
C     7.452980053799999e+00   4.229426326935810e+00   1.315583637600000e+01 -1.37974545e+00  -9.06095870e-01  -9.17424970e-01
C     8.686533644099999e+00   4.929108661551875e+00   1.333629246400000e+01 -9.28346310e-01  -2.75172353e+00   1.77182684e+00
C     8.730423301875000e+00   5.108145005562199e+00   3.592329568000000e+00 -2.54637050e-01   2.52750480e+00  -2.44926260e-01
C     9.888237708900000e+00   5.930079691447112e+00   3.383610232000000e+00  1.11971214e+00  -5.77103486e+00   1.15679733e+00
C     7.424940062549999e+00   1.572473296209816e-01   6.567216687999999e+00  4.63028640e-01  -2.11655524e+00   8.40457160e-01
C     1.287710133300000e+00   7.875892273649401e-01   6.828431752000000e+00 -1.09893289e+00   3.07412330e-01   4.45112230e-01
C     1.103067521175000e+00   5.350601818564003e-01   1.003871488000000e+01  2.27201699e+00   8.60248300e-01   1.04170176e+00
C     2.293818740550000e+00   1.227776541155564e+00   1.021748280000000e+01  3.63957362e+00   1.71630064e+00  -1.10059411e+00
C     2.470420547325000e+00   1.529278498221474e-01   7.139564664000001e+00  5.64501600e-01  -4.50777927e+00  -1.28509722e+00
C     3.629435828400000e+00   9.048994768858044e-01   7.316727103999999e+00  2.12730976e+00  -1.99676557e+00  -2.26007753e+00
C     3.622038905700000e+00   5.135450135331516e-01   9.928604519999999e+00 -2.02188819e+00   3.00560311e+00   1.13852454e+00
C     4.852145723475000e+00   1.331132233012382e+00   9.962829328000000e+00 -4.17938100e-01  -3.02050392e+00   6.44008270e-01
C     4.766106932100000e+00   1.569485069492340e-01   6.810633159999999e+00  3.86245465e+00  -6.85954500e-01   7.81712080e-01
C     6.139743415800000e+00   8.288350816013269e-01   6.600688192000000e+00 -1.92991697e+00  -2.42025723e+00   1.54453534e+00
C     6.036439296075000e+00   5.280281786409630e-01   9.920832120000000e+00  7.68361630e-01  -1.04584919e+00   7.02496030e-01
C     7.301071372199999e+00   1.211031840469651e+00   1.010701734400000e+01 -3.65002711e+00   1.74484207e+00  -8.40276390e-01
C     1.325323136925000e+00   2.154615532490421e+00   6.957643719999999e+00 -9.16624160e-01   4.59366749e+00   2.87914640e-01
C     2.559122832825000e+00   3.034553389685618e+00   7.135222184000000e+00 -3.73543254e+00  -1.15273120e-01  -2.84188280e-01
C     2.321367371025000e+00   2.727133386016440e+00   1.034672931200000e+01  2.36696141e+00  -4.01070951e+00  -3.96941540e-01
C     3.579040826100000e+00   3.383247618453503e+00   1.035642584000000e+01  1.17030029e+00   1.15273018e+00  -9.55372730e-01
C     3.690406605075000e+00   2.298143148583082e+00   7.403953696000000e+00  2.76988612e+00   1.74380544e+00  -2.63602418e+00
C     4.982669802899999e+00   2.960241007223900e+00   7.099118671999999e+00 -1.28028303e+00  -1.50795508e+00   3.46990300e-02
C     4.845334188975000e+00   2.739127536306962e+00   1.017739380800000e+01 -3.18277050e+00  -2.58122046e+00   3.76805520e-01
C     5.994222941924999e+00   3.433376882810074e+00   1.013391569600000e+01  4.56429464e+00  -4.87373670e-01  -1.16811882e+00
C     6.141220197300000e+00   2.171055198374463e+00   6.871986568000000e+00  1.93748645e+00   2.37380629e+00   4.77876800e-01
C     7.439958826875000e+00   2.835810183601395e+00   6.941386416000000e+00  6.10665430e-01   5.09872430e-01  -2.60434470e-01
C     7.236460776525000e+00   2.664426479435721e+00   1.011117976000000e+01  1.53946153e+00  -3.48154760e-01   2.73303140e-01
C     8.549263845675000e+00   3.372119003612760e+00   1.014862967200000e+01 -4.76509527e+00   7.21258500e-02  -9.18741550e-01
C     9.893970128025000e+00   4.499086890305007e+00   6.903391279999999e+00  1.77786830e+00  -2.33885740e+00  -6.67176270e-01
C     3.839385239775000e+00   5.122896573116923e+00   6.704774432000000e+00 -3.37187658e+00   7.22814500e-02   8.79265740e-01
C     3.664718778450000e+00   4.795610241353131e+00   1.022679662400000e+01 -1.71761345e+00   5.55657130e-01  -9.89454430e-01
C     4.959893535675000e+00   5.574690067256912e+00   1.006704898400000e+01 -5.96087786e+00  -2.72342133e+00   4.72850600e-02
C     5.060003533050001e+00   4.344685805004746e+00   6.881519488000000e+00 -1.94672300e+00   1.41576040e+00   3.69458370e-01
C     6.282249576749999e+00   5.023492436444883e+00   6.979603912000000e+00 -9.87633750e-01   2.22515685e+00   7.89182900e-02
C     6.079925260800000e+00   4.828454221617827e+00   9.911983824000000e+00  4.98298630e-01   1.93931660e-01   9.78182800e-01
C     7.266581388000001e+00   5.535117325386449e+00   9.726955552000000e+00  3.01170259e+00  -1.49535629e+00   1.33508831e+00
C     7.474996041074999e+00   4.259092194237481e+00   7.018645567999999e+00 -1.39858240e+00   1.10406165e+00  -6.52274260e-01
C     8.579632078725000e+00   5.091243144388401e+00   6.824849240000000e+00  2.16752195e+00   1.40541586e+00   5.88603700e-01
C     8.511289041674999e+00   4.726272942567376e+00   9.815384927999999e+00 -1.22092400e-02   1.84204349e+00   1.22586146e+00
C     9.732191044124999e+00   5.383644651035251e+00   9.962686119999999e+00  2.14475181e+00   4.59419575e+00   1.44017320e-01
