72
Lattice="7.395 0 0 3.6975 6.40425786098592 0 0 0 13.6 " PBC="1 1 1" Properties=species:S:1:pos:R:3:force:R:3 Energy="-568.5447536"
C     3.613815924524999e+00   6.199678773940852e+00   4.460840799999999e-01 -3.84332290e-01  -2.51585356e+00  -2.16463634e+00
C     1.076733630375000e+00   5.161970807555563e-01   4.221229200000000e-01  4.81378423e+00  -4.39075725e+00  -2.35846600e-01
C     1.505605989825000e+00   1.124250111784199e+00   3.424934784000000e+00 -1.71404245e+00  -8.84233700e-02  -4.24791500e-01
C     2.790747950550000e+00   1.748334601300888e+00   3.640090728000000e+00 -2.63665275e+00   2.38510108e+00  -1.58135747e+00
C     6.041931118875000e+00   6.105040750010803e+00   2.664740480000000e-01  2.27599578e+00   4.80860210e-01  -8.52644200e-02
C     3.663003730050000e+00   4.330785875660244e-01   4.017276800000000e-01 -3.90782440e-01  -7.13936950e-01  -2.20951893e+00
C     3.979113727800000e+00   1.102026248286163e+00   3.411778416000000e+00  1.84239292e+00   8.69207470e-01   6.34465700e-02
C     5.156720926275000e+00   1.933637767797536e+00   3.307546112000000e+00  3.48058464e+00  -3.27804177e+00  -1.81610410e+00
C     8.613656030025000e+00   6.137915214542912e+00   2.126190000000000e-01 -2.76837470e-01   5.00720710e-01  -6.08556440e-01
C     6.187057550175000e+00   5.547653147806770e-01   1.291072480000000e-01 -4.19738266e+00  -2.43863037e+00   1.35429590e+00
C     6.454585725674999e+00   1.226548140455438e+00   3.048789248000000e+00 -1.51223940e+00  -2.08840388e+00   1.71997573e+00
C     7.693495107750000e+00   1.985082979059180e+00   3.334588624000000e+00 -1.35129912e+00  -9.67475141e+00  -1.12978614e+00
C     1.181560676400000e+00   1.870288322025724e+00   5.317045120000000e-01 -4.49752940e-01   7.64802940e-01  -2.08227036e+00
C     2.461948613475000e+00   2.498860915450700e+00   6.334930320000001e-01 -1.28824319e+00   3.14913634e+00  -1.09112308e+00
C     2.771740582050000e+00   3.256096202049491e+00   3.547100320000000e+00 -2.09756736e+00  -2.31214521e+00   1.67885560e-01
C     3.967707901650000e+00   3.948736670893014e+00   3.279695896000000e+00  1.13439700e-02  -1.21544587e+00  -3.82306780e-01
C     3.704749096650000e+00   1.901575042949182e+00   3.910607920000000e-01 -1.65099235e+00  -2.54172487e+00   1.43235945e+00
C     4.874107616324999e+00   2.648706716177722e+00   2.293604640000000e-01  9.30273380e-01  -3.86518607e+00  -1.21152107e+00
C     5.237792422199999e+00   3.310093061770295e+00   3.131802832000000e+00 -3.65063320e-01   9.81677380e-01   2.23483856e+00
C     6.506792613899999e+00   4.060356865390426e+00   3.246829592000000e+00 -3.95848539e+00  -8.22838060e-01   3.91807430e-01
C     6.108550196550000e+00   1.987720636701400e+00   4.453279199999999e-02  9.80328650e-01  -3.96792051e+00   2.72433350e-01
C     7.381418527875000e+00   2.540652284371602e+00   7.115071199999999e-02  1.05807704e+00   2.67158955e+00   2.42073372e+00
C     7.606725135749999e+00   3.256516193279950e+00   3.556389528000000e+00  1.93880573e+00   5.85926259e+00  -7.44867920e-01
C     8.854986530625000e+00   3.904718477471612e+00   3.556485816000000e+00  3.36765598e+00   3.01973306e+00  -9.53184600e-01
C     2.402034767175000e+00   3.973529538389011e+00   6.351061280000000e-01  1.13298769e+00  -1.24011593e+00  -2.79936288e+00
C     3.661366920750000e+00   4.624113950334279e+00   5.250350720000000e-01  1.82073010e-01   4.02214356e+00  -1.88178735e+00
C     3.885358069050000e+00   5.277852010977546e+00   3.000938328000000e+00 -5.03068300e-02   3.85465997e+00   1.19731040e+00
C     5.040416581424999e+00   6.081276086114229e+00   3.169655440000000e+00  5.05505727e+00   1.94966617e+00   1.14769517e+00
C     4.912064154675000e+00   3.965708018264593e+00   1.314542000000000e-01 -1.90162510e+00   4.09239615e+00   1.20150063e+00
C     6.157697810249999e+00   4.629988063728628e+00   1.351850662400000e+01 -1.08289230e+00   4.05304272e+00   2.72660239e+00
C     6.421731885225000e+00   5.492477328256519e+00   3.329761848000000e+00 -8.15116530e-01  -2.53429708e+00  -9.24819500e-01
C     7.722559824149999e+00   6.098775784759257e+00   3.338160392000000e+00 -3.59678366e+00   2.16941222e+00   3.98812280e-01
C     7.411906744800000e+00   3.963108465956640e+00   1.147475520000000e-01 -1.32292324e+00   3.96065000e-01  -1.96442892e+00
C     8.613627041625000e+00   4.664306752450745e+00   1.384584720000000e-01  1.26359977e+00   2.11461354e+00   3.04686019e+00
C     8.892354648825000e+00   5.399251187014285e+00   3.262012904000000e+00 -9.44779630e-01  -4.46462417e+00   7.76793180e-01
C     1.004912547345000e+01   6.003565988687468e+00   2.963701664000000e+00  3.46388682e+00   4.85571704e+00   1.38707864e+00
C     7.260856511775000e+00   3.085333838981394e-01   6.324634440000000e+00  2.47233124e+00  -1.39020742e+00   1.91643900e-01
C     1.150401326250000e+00   9.982483237086360e-01   6.408382016000000e+00  6.00109790e-01  -1.74051913e+00  -1.98271630e-01
C     1.095139526550000e+00   3.165337749445872e-01   1.029285889600000e+01 -6.69479090e-01  -7.65985380e-01   1.48185511e+00
C     2.382890665125000e+00   1.062510376225498e+00   1.062450292000000e+01 -3.91351383e+00  -4.10501440e+00  -7.44484260e-01
C     2.401363079325000e+00   1.548411859004010e-01   6.327740407999999e+00 -7.00886170e-01   6.63694693e+00   1.09650272e+00
C     3.581612807100000e+00   1.007785544513748e+00   6.413565655999999e+00 -1.42633698e+00   1.05397259e+00  -4.11409340e-01
C     3.543913614750000e+00   3.299039440789092e-01   1.062790400800000e+01  2.39591570e+00  -1.05103873e+00  -1.96185630e+00
C     4.783842027824999e+00   9.581915480291154e-01   1.040204744800000e+01 -7.60182400e-01   2.24422084e+00   1.35584712e+00
C     4.733437153199999e+00   2.778999613189800e-01   6.176470192000000e+00  2.58327630e+00  -1.01561453e+00   1.78453522e+00
C     5.996949552375000e+00   8.956553789629447e-01   6.294711176000000e+00  5.25971010e-01   3.35626426e+00   2.02201700e-02
C     5.971220720474999e+00   2.373786207742950e-01   1.023215189600000e+01  1.62846339e+00   1.81472434e+00   5.91893220e-01
C     7.200086879100000e+00   9.690401687162196e-01   1.024901807200000e+01  1.58806624e+00  -1.54045500e-01  -2.18910140e-01
C     8.612120643150000e+00   2.423530640244714e+00   6.509133808000000e+00 -1.42215392e+00  -1.30801875e+00  -3.37374360e-01
C     2.362872178275000e+00   3.235252968460914e+00   6.440879896000000e+00  1.96652912e+00  -1.83240858e+00   1.69250421e+00
C     2.334632632950000e+00   2.380459700603385e+00   1.077802747200000e+01 -1.76972482e+00   5.70657088e+00  -1.99096356e+00
C     3.555108424575000e+00   3.215143342610199e+00   1.062057755200000e+01  6.07489200e-02  -5.11980827e+00   5.56319480e-01
C     3.598079697300000e+00   2.547748138037903e+00   6.534460272000000e+00  9.57644680e-01  -4.39159504e+00  -1.30444511e+00
C     4.914107060399999e+00   3.108721676345485e+00   6.416385888000000e+00 -3.65457786e+00   2.66344986e+00   2.21956800e-02
C     4.791100516125000e+00   2.393540205154699e+00   1.052293322400000e+01  8.46427100e-02   2.23780861e+00  -1.24048501e+00
C     6.043159206524999e+00   3.120047158072845e+00   1.031980539200000e+01 -3.19333039e+00   2.28459889e+00  -5.42825300e-02
C     6.039480674699999e+00   2.333342166590636e+00   6.386724151999999e+00  2.84880813e+00  -1.24501920e-01   6.81489450e-01
C     7.347560076674999e+00   3.048475990102943e+00   6.518780832000000e+00 -1.30642555e+00  -2.04723452e+00  -6.74025690e-01
C     7.189271247899999e+00   2.387855337580113e+00   1.026054638400000e+01  1.48191373e+00  -1.03307177e+00   8.96921280e-01
C     8.371500358350000e+00   3.051808701850709e+00   1.051199800800000e+01  5.19590784e+00   2.69089664e+00  -5.37747360e-01
C     9.811007434799999e+00   4.627114985567474e+00   6.470648936000000e+00 -2.94481050e-01  -3.60961520e-01  -1.42470408e+00
C     3.667333317675000e+00   5.269973172745281e+00   6.333188840000000e+00 -9.94911050e-01   1.74413955e+00   3.98398350e-01
C     3.558270637500000e+00   4.574534875770460e+00   1.043119388000000e+01 -1.13680681e+00  -3.07941410e-01   2.96001230e-01
C     4.726961129849999e+00   5.233819792231430e+00   1.033758453600000e+01  5.58871508e+00   3.71132995e+00  -5.28035800e-01
C     4.876485589500000e+00   4.598969425039190e+00   6.304711664000000e+00  1.46338966e+00  -3.23073185e+00   6.65777590e-01
C     6.145248623550000e+00   5.215931803432350e+00   6.287197720000000e+00  8.12866500e-02  -2.91923657e+00   3.28539760e-01
C     6.050847677100000e+00   4.608231390841478e+00   1.029627739200000e+01 -9.30096650e-01  -1.67890118e+00   6.85849600e-01
C     7.293055377075000e+00   5.368247021947610e+00   1.035719056800000e+01 -1.05775654e+00  -4.01737747e+00   4.23341800e-02
C     7.379921262224999e+00   4.391195638989159e+00   6.401251808000000e+00 -7.62047360e-01   6.00850601e+00  -6.58505080e-01
C     8.581860081300000e+00   5.258361676861893e+00   6.281232624000000e+00 -2.79147081e+00  -1.06614963e+00   1.00755340e+00
C     8.529044658524999e+00   4.529005149408940e+00   1.032624295200000e+01 -2.32899856e+00   4.26072500e-01   1.45322770e+00
C     9.751966346400000e+00   5.286362116907072e+00   1.038603127200000e+01 -2.28182502e+00  -2.84573576e+00  -6.47616340e-01
