72
Lattice="7.395 0 0 3.6975 6.40425786098592 0 0 0 13.6 " PBC="1 1 1" Properties=species:S:1:pos:R:3:force:R:3 Energy="-575.956146"
C     3.715318400400000e+00   6.281109617099117e+00   1.315283295200000e+01 -2.76163764e+00   1.01505536e+00  -2.49571940e-01
C     1.133847322950000e+00   6.475559024458524e-01   1.309003780800000e+01  3.65197936e+00  -8.06117760e-01   5.20510520e-01
C     1.327799389650000e+00   8.508720048124297e-01   3.626989984000000e+00 -6.12167720e-01   1.19118950e-01   2.69346620e-01
C     2.571037213125000e+00   1.555533073531437e+00   3.582087679999999e+00 -3.05264423e+00   2.94964509e+00  -1.52018180e-01
C     6.020911681799999e+00   6.339483146641445e+00   1.318189479200000e+01  5.59082566e+00  -1.58072074e+00   1.97480530e-01
C     3.666404357774999e+00   6.732078370911895e-01   1.317145720000000e+01  1.65993790e-01  -1.27099630e+00   3.69069310e-01
C     3.707617469250000e+00   8.194174923330396e-01   3.656097928000000e+00  3.82026328e+00   3.01088440e+00   5.50810930e-01
C     4.934818273875000e+00   1.577024225887711e+00   3.780723296000000e+00  2.76541896e+00   2.87167950e-01  -1.35356757e+00
C     8.680023566774999e+00   6.313544557414295e+00   1.324203956800000e+01 -3.41321752e+00   5.40217090e-01  -7.86920510e-01
C     6.213328657424999e+00   6.565885317741750e-01   1.319817195200000e+01 -2.63273939e+00  -2.42005843e+00   4.09667440e-01
C     6.271674393975000e+00   9.009756521375610e-01   3.773418192000000e+00 -2.90898281e+00  -2.27237481e+00   2.03082000e-03
C     7.485389935425000e+00   1.569468098209011e+00   3.644937632000000e+00  1.14220030e-01  -4.77378820e-01   1.66502890e-01
C     1.239193017300000e+00   2.041409323533981e+00   1.306204805600000e+01 -2.48714416e+00   3.04688970e-01   9.58944480e-01
C     2.415251333025000e+00   2.758284336673265e+00   1.304804087200000e+01  2.18177974e+00   4.04297880e-01   6.91324000e-02
C     2.557322150325000e+00   3.097835398622165e+00   3.585555815999999e+00 -1.94048860e-01  -4.13891108e+00   7.71399060e-01
C     3.850884649650000e+00   3.739306295462338e+00   3.792605615999999e+00 -5.00592228e+00  -8.86585180e-01  -1.53821010e+00
C     3.694815725925000e+00   2.118655880776835e+00   1.309137278400000e+01 -1.17616832e+00  -3.02553868e+00   9.63001860e-01
C     4.922652019875000e+00   2.772929209292042e+00   1.326493938400000e+01 -2.11293710e-01  -2.33479201e+00  -4.22049080e-01
C     5.000903654400000e+00   3.039506250586806e+00   3.688334416000000e+00  2.62059060e-01  -3.98656510e+00   1.11277622e+00
C     6.223887275399999e+00   3.674897009057274e+00   3.729403424000000e+00  1.49256890e+00   7.31482860e-01  -3.04867960e-01
C     6.125917575899999e+00   2.054614518985829e+00   1.328183167200000e+01  2.43520926e+00  -9.33767200e-02   2.76649000e-02
C     7.409134396275000e+00   2.753518928399640e+00   1.325935604000000e+01 -9.80432870e-01  -2.98430809e+00  -2.45227990e-01
C     7.425532254149999e+00   2.949608402154414e+00   3.639044344000000e+00  1.49224033e+00   1.43829574e+00  -3.23891050e-01
C     8.633942918399999e+00   3.698597246119776e+00   3.590948216000000e+00  2.60826281e+00   1.11053598e+00   9.01911610e-01
C     2.409765574125000e+00   4.163366599237646e+00   1.305046507200000e+01  1.60882589e+00   1.21330881e+00   3.89212310e-01
C     3.707648528250000e+00   4.890521214753175e+00   1.306318678400000e+01 -8.40448150e-01  -2.08621275e+00   1.22463858e+00
C     3.777862241475000e+00   5.098334579116780e+00   3.800598200000000e+00  2.75152690e-01   3.01867408e+00   3.15789980e-01
C     4.953782936250000e+00   5.841169379576732e+00   3.783156471999999e+00  4.47925061e+00  -5.76212330e-01  -7.06409350e-01
C     4.952477607825000e+00   4.120634316751953e+00   1.324561296800000e+01 -1.48111164e+00   4.13904559e+00  -4.72738280e-01
C     6.149018039925000e+00   4.843112479135531e+00   1.328809066400000e+01  1.77761080e-01   1.69576700e+00   3.91827270e-01
C     6.297842377949999e+00   5.072937149678799e+00   3.764203104000000e+00 -2.61927159e+00   2.98564818e+00  -5.10221070e-01
C     7.506883872674999e+00   5.874466589170179e+00   3.692170840000000e+00 -2.09810743e+00  -4.07588033e+00   5.55139720e-01
C     7.418293621424999e+00   4.084278369561991e+00   1.335230755200000e+01 -2.05749714e+00   5.50037394e+00  -1.01862926e+00
C     8.575660261199999e+00   4.851888425808824e+00   1.312803117600000e+01  2.19690567e+00   1.75894337e+00   1.38194034e+00
C     8.694027071550000e+00   5.134646785225558e+00   3.759761479999999e+00  1.35729759e+00   2.88808420e-01  -7.81615210e-01
C     9.975695194049999e+00   5.834993753722333e+00   3.814601168000000e+00 -2.19518066e+00   4.71763480e-01  -4.63438410e-01
C     7.359656669775000e+00   8.284208542029420e-02   7.023384488000000e+00  5.57002668e+00  -1.36477472e+00  -7.37919820e-01
C     1.273684554450000e+00   8.619458632484701e-01   6.886632815999999e+00 -6.87513830e-01  -3.66761021e+00   5.93610420e-01
C     1.131274491525000e+00   5.928529732959834e-01   1.022450271200000e+01  2.97348842e+00  -1.80700426e+00   1.82143000e-02
C     2.446984276350000e+00   1.302640266176449e+00   1.015840752800000e+01 -4.09168721e+00  -3.90461960e-01  -2.65231000e-02
C     2.556663107925000e+00   9.346290665531820e-02   6.821092920000001e+00 -3.94200837e+00  -4.35730330e-01   5.08120650e-01
C     3.764768691450000e+00   7.697488862443380e-01   6.786738912000000e+00 -4.38344870e-01   1.20494796e+00   3.88037380e-01
C     3.604546883624999e+00   5.424604298987874e-01   1.026884061600000e+01 -4.07740010e-01   3.12672505e+00  -7.39239500e-01
C     4.816925039325000e+00   1.218521684079500e+00   1.022066220800000e+01  2.26678701e+00   2.44340966e+00   3.00631590e-01
C     4.978048186724999e+00   8.056575600653582e-02   6.926139864000000e+00  1.25523514e+00   1.19840700e-01   2.58326190e-01
C     6.225377848575000e+00   7.926293142581815e-01   7.044286464000000e+00 -3.42039001e+00   6.61912400e-01  -9.54791540e-01
C     6.057752092799999e+00   5.667825844420740e-01   1.028733117600000e+01  1.50830559e+00   6.95126700e-02  -3.53678570e-01
C     7.338192534375000e+00   1.273668364256488e+00   1.026735481600000e+01 -3.10744809e+00   8.36572580e-01  -9.73428550e-01
C     8.638591600274999e+00   2.234335221991072e+00   6.915266527999999e+00 -8.82140200e-02   1.66408997e+00  -1.12131902e+00
C     2.493399844275000e+00   2.914277968775574e+00   6.777378168000000e+00 -9.33294690e-01   5.91894200e-01   1.21545180e+00
C     2.364862320675000e+00   2.730004030559606e+00   1.007140642400000e+01  2.95118550e-01  -1.68119086e+00   6.14578390e-01
C     3.568953269624999e+00   3.434073794150399e+00   1.012109674400000e+01  2.56543770e+00  -1.21971070e+00   9.83287200e-02
C     3.687641207850000e+00   2.200602394777988e+00   6.771643320000000e+00  3.41490753e+00   8.37618400e-01   4.75901790e-01
C     5.020270826625000e+00   2.950800170499582e+00   6.871378919999999e+00 -4.46709759e+00  -9.73246050e-01  -1.96109870e-01
C     4.893938196224999e+00   2.648166324899496e+00   1.020729680800000e+01 -3.54039619e+00   1.51478622e+00  -3.79980290e-01
C     6.102010169474999e+00   3.377775116069554e+00   1.025977880000000e+01 -1.90833601e+00   1.29686906e+00  -5.56258960e-01
C     6.177684350700000e+00   2.204094636589045e+00   6.922517095999999e+00  2.12385054e+00   2.23351803e+00   2.54171620e-01
C     7.399780941450000e+00   3.016963262919606e+00   6.884550656000000e+00  7.61261050e-01  -4.05654326e+00   5.23551730e-01
C     7.274015322674998e+00   2.696099377108137e+00   1.016554929600000e+01  2.95857542e+00  -1.08121328e+00   8.88295120e-01
C     8.512628313150000e+00   3.390914283622866e+00   1.017688612000000e+01  7.45364060e-01   2.12955639e+00  -3.83804260e-01
C     9.875948808824999e+00   4.349003235441065e+00   6.938978808000000e+00  1.83226247e+00  -1.67462884e+00  -8.13385610e-01
C     3.719315250000000e+00   5.006932562640809e+00   6.943487343999999e+00 -2.02587361e+00   3.90921896e+00   5.53562180e-01
C     3.544911754875000e+00   4.835023389117723e+00   1.016036157600000e+01  3.30208959e+00   6.89552700e-02   4.68067840e-01
C     4.799233832925000e+00   5.528296854808128e+00   1.026882375200000e+01  1.63323325e+00   5.12442310e-01  -8.28959000e-01
C     4.930794802274999e+00   4.391056794678755e+00   6.918620015999999e+00  1.72485279e+00  -3.10728720e+00  -2.29421560e-01
C     6.134753454675000e+00   5.055430022094653e+00   6.902954447999999e+00  3.75586825e+00   2.53153595e+00  -4.85019130e-01
C     6.091953745950000e+00   4.814642030606008e+00   1.027856624800000e+01 -1.75431803e+00   1.44565901e+00   1.48079940e-01
C     7.276815254550000e+00   5.621872476401782e+00   1.034072137600000e+01  1.73802491e+00  -6.58171742e+00  -5.28963480e-01
C     7.441582990724999e+00   4.384599637648831e+00   6.859716919999999e+00 -1.59492260e+00   9.13586420e-01   4.10783960e-01
C     8.712143638350000e+00   5.074808601910648e+00   6.917577032000000e+00 -2.87287036e+00   5.49430250e-01  -9.48655000e-03
C     8.600559743849999e+00   4.849520899763140e+00   1.029145510400000e+01 -4.52534433e+00  -5.19921960e-01  -4.90342230e-01
C     9.775271208225000e+00   5.567318382204579e+00   1.024225900800000e+01 -5.79842340e-01  -1.00129610e-01  -1.27550340e-01
