72
Lattice="7.395 0 0 3.6975 6.40425786098592 0 0 0 13.6 " PBC="1 1 1" Properties=species:S:1:pos:R:3:force:R:3 Energy="-578.52274826"
C     7.409602573725000e+00   3.095312313153060e-02   1.355858568800000e+01  5.81714820e-01  -2.17123689e+00   7.09864400e-02
C     1.295680020600000e+00   6.788079122917092e-01   1.359254121600000e+01 -2.13702735e+00   1.52424625e+00  -4.75421570e-01
C     1.196302867725000e+00   7.754898551177779e-01   3.431498824000000e+00  4.19742860e+00  -3.11641002e+00  -5.33904520e-01
C     2.463868910100000e+00   1.458380545837816e+00   3.422689016000000e+00  2.73883460e-01  -1.22356522e+00  -3.09991250e-01
C     6.194506385775000e+00   6.380926572232814e+00   1.357636197600000e+01  9.50945600e-02   1.89349650e+00   1.28431130e-01
C     3.741282615150000e+00   7.494804347986956e-01   1.356225551200000e+01 -2.78938525e+00  -3.03269792e+00  -3.72336600e-01
C     3.707145520350000e+00   7.293354574445940e-01   3.400983007999999e+00 -3.07073181e+00  -1.37312209e+00   8.47011200e-02
C     4.881161078249999e+00   1.386507865407865e+00   3.423447216000000e+00  3.22153274e+00   1.67805488e+00  -1.70878450e-01
C     8.587182373725000e+00   6.387945254591901e+00   1.358362940800000e+01  1.78148757e+00   2.10055190e-01  -1.18764040e-01
C     6.127461097274999e+00   5.974380376682719e-01   1.375776000000000e-03  1.40372905e+00   5.02428958e+00  -2.57541450e-01
C     6.159596883224999e+00   6.810597133978639e-01   3.425169520000000e+00  5.61522610e-01   5.03467700e-01  -2.50209440e-01
C     7.436442393450000e+00   1.446205795475641e+00   3.388719344000000e+00 -4.21040207e+00  -2.31671900e+00   2.72500000e-01
C     1.267486287300000e+00   2.099066857047561e+00   1.355535963200000e+01 -1.08270662e+00   2.16152300e+00   5.88761010e-01
C     2.496451982625000e+00   2.833337243471335e+00   1.358580704000000e+01 -2.10561355e+00   1.50569131e+00  -1.02984262e+00
C     2.503396183425000e+00   2.835549402221336e+00   3.380945040000000e+00 -3.01610488e+00   3.67838360e+00   2.88522590e-01
C     3.670645316324999e+00   3.635638588162581e+00   3.455321399999999e+00  2.25550964e+00  -4.39774559e+00  -7.13039000e-01
C     3.709020707475000e+00   2.107711644519882e+00   1.347100019200000e+01 -2.27950990e-01   2.06162733e+00   1.74095312e+00
C     4.926205206450000e+00   2.776514248799491e+00   5.441087999999999e-02 -3.60695600e-01   3.53261656e+00  -1.17040661e+00
C     4.866012457725001e+00   2.814350284023479e+00   3.413754768000000e+00  2.70141378e+00   1.72596772e+00   7.05670520e-01
C     6.211488522600000e+00   3.479502205152574e+00   3.451291720000000e+00 -4.16041659e+00   2.55601208e+00  -5.33228290e-01
C     6.109834153424999e+00   2.096806986576502e+00   1.139000000000000e-02  3.03686061e+00  -7.62513750e-01   2.97315960e-01
C     7.367984955750000e+00   2.885988888828646e+00   1.359235231200000e+01  9.74616340e-01  -1.84934068e+00   1.16976930e-01
C     7.411058390399999e+00   2.803900520515895e+00   3.388058384000000e+00  9.43434580e-01   3.17074297e+00  -9.03314400e-02
C     8.596767624825000e+00   3.605838679743901e+00   3.347913088000000e+00  1.66360360e+00  -1.74462514e+00   1.04017696e+00
C     9.784278798899999e+00   4.322930028713697e+00   1.355302424000000e+01  4.69146632e+00  -2.64934769e+00  -7.61267600e-02
C     3.716833303125000e+00   5.019726668780624e+00   1.352026279200000e+01 -1.36036952e+00  -1.48027709e+00   7.34090900e-01
C     3.730860508875000e+00   5.004866485012595e+00   3.419702320000000e+00 -1.87453900e-01   4.64390820e-01  -1.64715900e-02
C     4.953440473800000e+00   5.716243698949384e+00   3.387075920000000e+00  2.20401000e-03   9.70118200e-02   5.58179200e-01
C     4.944765399300000e+00   4.270168678419243e+00   2.138763200000000e-02 -1.28325593e+00  -1.10298579e+00  -2.11644710e-01
C     6.147979523100000e+00   4.995929022956072e+00   1.943032000000000e-02  7.25000850e-01  -7.26385510e-01   5.80428200e-02
C     6.181570903875000e+00   4.962625409104763e+00   3.420627256000000e+00  2.95739390e-01  -2.07252670e-01  -2.55536200e-01
C     7.416163972350001e+00   5.721776593484953e+00   3.384061752000000e+00 -2.02229802e+00  -2.20785310e-01   7.66782160e-01
C     7.397957593275001e+00   4.346103515567214e+00   1.544701600000000e-02 -2.00155515e+00  -4.59507932e+00  -2.49818960e-01
C     8.593850149424998e+00   4.995210913522230e+00   1.355319301600000e+01  8.95967200e-02   4.73195710e-01   4.22545800e-01
C     8.609884506074998e+00   5.044601446734650e+00   3.482906824000000e+00  1.16319150e+00  -3.45492670e+00  -1.35865828e+00
C     9.882761045850000e+00   5.636637877153484e+00   3.425070240000000e+00 -5.79259530e-01   4.18578331e+00   3.81997720e-01
C     3.712366464300000e+00   6.395312776876624e+00   6.841512639999999e+00 -6.11021660e-01   1.30257459e+00   4.74438760e-01
C     1.255895401275000e+00   7.438421902213302e-01   6.832142512000000e+00 -1.67711984e+00  -8.52201270e-01  -1.69443380e-01
C     1.297237000875000e+00   6.916272512074927e-01   1.019750494400000e+01 -5.83961003e+00  -7.39779700e-01   1.71523910e-01
C     2.442760363275000e+00   1.365335324880127e+00   1.016857216800000e+01  1.83174923e+00   3.31321502e+00   4.82774890e-01
C     2.458515151949999e+00   3.946982544665160e-02   6.750151920000000e+00  9.71900550e-01  -1.01716730e+00   5.04060530e-01
C     3.725789572500000e+00   6.658549165143877e-01   6.730861271999999e+00  3.75464570e-01   1.52176284e+00   1.84652300e-01
C     3.635011214700000e+00   6.890652278505996e-01   1.027528538400000e+01  3.84541480e+00   1.39830290e-01  -1.11722044e+00
C     4.941081949800000e+00   1.407637049109892e+00   1.018039097600000e+01 -1.74059719e+00   4.94975670e-01   1.22259900e+00
C     5.013868679324999e+00   5.339421905617800e-03   6.805650800000000e+00 -3.25445849e+00  -1.99122080e-01   2.33035810e-01
C     6.178171089600000e+00   7.442981093383837e-01   6.898640799999999e+00  2.14330557e+00   3.93355940e-01  -1.19902623e+00
C     6.188267778899999e+00   7.250729114981352e-01   1.024509800800000e+01 -1.01789341e+00  -4.07829310e-01  -7.41848860e-01
C     7.365018155700000e+00   1.508291489043940e+00   1.020416935200000e+01  2.91948739e+00  -5.05558109e+00  -1.71830160e-01
C     8.609710538700000e+00   2.155646938218774e+00   6.852469072000000e+00  7.13143210e-01  -1.70585640e+00  -7.72618790e-01
C     2.449580919675000e+00   2.776425549828130e+00   6.743133095999999e+00  1.43582603e+00   2.31780773e+00   8.56838700e-01
C     2.467765113750000e+00   2.810761914301942e+00   1.017578193600000e+01 -4.02011000e-03   1.67833676e+00  -2.24696000e-02
C     3.698854024500000e+00   3.601810977933169e+00   1.016104021600000e+01 -9.88623770e-01  -3.82738971e+00   2.80229290e-01
C     3.697048535250000e+00   2.093055820620164e+00   6.731037799999999e+00 -1.11832580e-01  -3.78283200e-02   1.47347840e-01
C     4.898162331150000e+00   2.859178616064170e+00   6.787461208000000e+00  2.12008742e+00  -8.83798310e-01  -2.43349830e-01
C     4.918097994000000e+00   2.870390037959044e+00   1.021521663200000e+01  1.13902004e+00  -1.71885027e+00  -7.43466590e-01
C     6.175155778350000e+00   3.531945520001699e+00   1.018041586400000e+01 -1.19750574e+00   1.23619510e+00   7.29645500e-02
C     6.209497640700000e+00   2.200774669314421e+00   6.779233479999999e+00 -3.75179559e+00  -3.33872220e+00   7.94401660e-01
C     7.398734622899999e+00   2.825371563502488e+00   6.796311407999999e+00  9.65501400e-02   4.50600350e+00   9.34563500e-02
C     7.412588563800000e+00   2.858527303039808e+00   1.014942350400000e+01 -7.01316730e-01   1.20202637e+00   6.67276270e-01
C     8.643026677574998e+00   3.551491507118155e+00   1.022271172800000e+01  4.38478230e-01   5.78437550e-01  -4.91526200e-01
C     2.491336676250000e+00   4.214787474319422e+00   6.835333751999999e+00 -2.94104264e+00   1.12788032e+00  -5.50764170e-01
C     3.648790983750000e+00   4.978599229272069e+00   6.821772375999999e+00  2.95056206e+00  -9.21221990e-01   1.86254840e-01
C     3.679131966225000e+00   4.964054967544273e+00   1.014937128000000e+01  1.39370032e+00   1.18116200e+00   5.45018610e-01
C     4.943319417974999e+00   5.647631490238538e+00   1.022620040000000e+01 -1.84254794e+00   2.22522377e+00  -5.78903880e-01
C     4.940934049800000e+00   4.241212466931040e+00   6.827065360000000e+00 -2.28294314e+00   2.44144810e+00  -2.05751510e-01
C     6.135608612475000e+00   5.023586643078003e+00   6.818858712000000e+00 -5.13798410e-01  -1.13956697e+00  -5.26942730e-01
C     6.120515787224999e+00   4.963245085095298e+00   1.020785780800000e+01  2.36052224e+00  -9.78880970e-01   2.05842320e-01
C     7.348557218474999e+00   5.700262834098433e+00   1.025232137600000e+01  7.80184470e-01  -1.01173362e+00   2.07099480e-01
C     7.329413708024999e+00   4.319620884634856e+00   6.770994871999999e+00  3.17940679e+00  -1.21365477e+00   4.82277660e-01
C     8.614804066800000e+00   5.009944485112367e+00   6.827418688000000e+00  1.13423154e+00  -2.30496799e+00  -2.59715250e-01
C     8.608458454274999e+00   4.996779572442458e+00   1.026620724800000e+01  1.00866829e+00  -6.69606370e-01  -6.00984220e-01
C     9.887492773575000e+00   5.659216792707278e+00   1.019533084800000e+01 -2.36534586e+00   2.34292152e+00   5.31889330e-01
