72
Lattice="7.395 0 0 3.6975 6.40425786098592 0 0 0 13.6 " PBC="1 1 1" Properties=species:S:1:pos:R:3:force:R:3 Energy="-581.99603035"
C     3.702857899350000e+00   6.262909100516469e+00   5.506939200000000e-02 -9.16789370e-01  -1.56093781e+00   7.99724630e-01
C     1.229258204550000e+00   5.329573437880692e-01   7.132751200000000e-02  4.78574730e-01   1.26371333e+00  -2.45046590e-01
C     1.332552230100000e+00   9.248209456405921e-01   3.358060320000000e+00 -1.90514470e-01  -4.68960770e-01  -9.65182400e-02
C     2.554538598375000e+00   1.619058956607292e+00   3.245101576000000e+00  1.24366700e-01   1.22803785e+00   5.75735570e-01
C     6.172443773025000e+00   6.256048283113629e+00   1.360145520000000e-01 -9.35728170e-01  -8.78718520e-01  -1.52457950e-01
C     3.692610462975000e+00   5.449825547292126e-01   7.570317600000000e-02 -2.36870550e-01   4.54734040e-01   5.63004670e-01
C     3.770477002874999e+00   9.150798773077963e-01   3.305717592000000e+00  3.35914900e-01  -7.76960070e-01   1.30608070e-01
C     5.005242596700000e+00   1.598217003870287e+00   3.354026968000000e+00  5.99152530e-01   4.70571380e-01   7.74334880e-01
C     8.591890030724999e+00   6.217125381288222e+00   1.675726720000000e-01  1.16052265e+00   1.89840703e+00  -6.00992700e-02
C     6.147021611774999e+00   5.221778890858531e-01   1.667030880000000e-01 -1.04062330e-01   1.35742000e-01  -6.76051090e-01
C     6.257355603375000e+00   9.118692947574211e-01   3.473657328000000e+00  6.51107100e-02  -9.42588570e-01  -3.34911370e-01
C     7.496475225300000e+00   1.634223919006879e+00   3.395480176000000e+00 -6.91382120e-01  -2.24858377e+00   1.45115160e-01
C     1.229046189900000e+00   1.961478293523949e+00   6.762192000000000e-03 -1.74893450e-01   6.89118440e-01   4.66497220e-01
C     2.479687184850000e+00   2.680464854522255e+00   1.355908752800000e+01 -1.89805814e+00   1.09396374e+00   5.12715650e-01
C     2.568173647275000e+00   3.074125042832244e+00   3.270575464000000e+00 -1.18170060e+00  -6.42000380e-01   9.44216000e-02
C     3.784092455025000e+00   3.782019685387343e+00   3.348784712000000e+00  8.74655230e-01  -1.24291636e+00   6.75164710e-01
C     3.688470298275000e+00   1.977373213234419e+00   4.440114400000000e-02 -3.08320280e-01  -5.70058640e-01  -5.32312300e-01
C     4.893376582950000e+00   2.670273374734165e+00   9.638102400000000e-02  1.73194702e+00   3.38672330e-01   4.50843570e-01
C     4.994340407025000e+00   3.010087203383060e+00   3.439717712000000e+00  1.29352099e+00   1.57906597e+00  -1.02935222e+00
C     6.275926555949999e+00   3.726000681247245e+00   3.412289640000000e+00 -1.81471742e+00   1.44744710e-01  -4.15348400e-02
C     6.127038140249999e+00   1.924579393352616e+00   1.596245600000000e-01  9.61532970e-01   2.02634090e+00  -2.52194720e-01
C     7.382449612724999e+00   2.682431409983325e+00   1.246951360000000e-01 -5.34887010e-01   4.90253300e-02  -5.13862040e-01
C     7.480898286375000e+00   2.999203551405462e+00   3.334186336000000e+00  9.59697580e-01   3.09065356e+00   2.20693760e-01
C     8.710923463349999e+00   3.771177468958100e+00   3.304302512000000e+00  2.49687160e-01  -1.83301620e-01   2.42452030e-01
C     2.418841087875000e+00   4.140298718596241e+00   6.473600000000000e-03  1.42631893e+00  -1.40146082e+00   6.30906100e-01
C     3.677670825149999e+00   4.824827362306552e+00   5.174419200000000e-02  4.87231460e-01  -8.20335000e-02   6.66717900e-02
C     3.801029186550000e+00   5.186537284536208e+00   3.473065319999999e+00  1.78718450e-01  -1.55459040e-01  -3.83368130e-01
C     5.020977234000000e+00   5.910826058701965e+00   3.411037080000000e+00  1.10885000e+00  -9.30144660e-01   7.29584000e-02
C     4.930548585750000e+00   4.092465764937950e+00   1.386953840000000e-01 -1.07975718e+00   5.54973060e-01  -2.90437650e-01
C     6.163984965300000e+00   4.820371279687564e+00   2.323353280000000e-01 -1.69771505e+00   9.93550600e-01  -9.92711070e-01
C     6.277191100950000e+00   5.162165240824192e+00   3.371633256000000e+00 -7.56524600e-01   3.21671480e-01   2.74794890e-01
C     7.502157691199999e+00   5.896804192287809e+00   3.366958528000000e+00 -1.12481801e+00   3.59350210e-01  -1.82424340e-01
C     7.358455019250000e+00   4.160628714959917e+00   1.390292640000000e-01  1.35925070e+00  -3.41555449e+00   6.52728980e-01
C     8.590279880399999e+00   4.843140593827536e+00   1.882609920000000e-01  3.02086350e-01  -1.45070186e+00  -1.31674775e+00
C     8.726983443675000e+00   5.222532864136388e+00   3.398293744000000e+00 -2.31686120e-01  -2.76587207e+00   9.19854900e-02
C     9.963154605149999e+00   5.851579500728161e+00   3.517695896000000e+00  1.10822300e-01   2.98701091e+00  -7.02292170e-01
C     7.433333424524999e+00   1.309485649317846e-01   6.787003840000000e+00 -5.42498660e-01  -2.42082370e-01   3.62574800e-02
C     1.255473035850000e+00   8.591255561720833e-01   6.745551583999999e+00  2.80069040e-01  -1.18713888e+00   1.41793200e-02
C     1.137056531100000e+00   5.530075381258429e-01   1.019346928000000e+01 -5.18387400e-01  -4.90954210e-01  -5.84491520e-01
C     2.377564749150000e+00   1.255218017574721e+00   1.002297832000000e+01 -1.59754559e+00  -3.35101970e-01   4.66512110e-01
C     2.497477484250000e+00   1.180706910991608e-01   6.790088456000000e+00 -4.91183930e-01   1.93494453e+00  -1.60418450e-01
C     3.747514159800000e+00   8.026937976129073e-01   6.771340720000000e+00 -4.98434300e-01   1.36495838e+00   1.69054420e-01
C     3.561486131400000e+00   5.398825239824017e-01   1.002192581600000e+01  2.37432241e+00  -3.00044170e-01   1.09407241e+00
C     4.817096196600001e+00   1.259125895720893e+00   1.015511632800000e+01 -1.67601890e-01  -1.29265080e-01  -5.96354030e-01
C     4.985169793574999e+00   1.388950961696298e-01   6.877383592000000e+00 -3.82570410e-01  -7.55507520e-01  -7.25787260e-01
C     6.202259784450000e+00   8.527716357788629e-01   6.813256328000000e+00  3.80975550e-01   3.35120680e-01   1.28085700e-02
C     6.071051038949999e+00   5.518278738280308e-01   1.023477288800000e+01 -3.88011450e-01   7.91602030e-01  -2.56061690e-01
C     7.306464545700000e+00   1.289395108155554e+00   1.023396681600000e+01  3.22825800e-02  -9.57947300e-01   2.67910000e-02
C     8.641055318475001e+00   2.263694261298670e+00   6.686137127999999e+00 -2.61915630e-01   3.06542500e-02   4.01275860e-01
C     2.476424399925000e+00   2.923206272743357e+00   6.716387880000000e+00  1.03755943e+00   1.74975308e+00  -4.97347080e-01
C     2.375459947275000e+00   2.649247875966892e+00   1.001287841600000e+01 -7.69422550e-01   2.56742972e+00   6.12461250e-01
C     3.597296862599999e+00   3.413001672385906e+00   1.008256386400000e+01 -3.48911050e-01  -1.55605989e+00  -7.50793900e-02
C     3.734680654950000e+00   2.243118085262855e+00   6.700549728000000e+00 -7.16979060e-01  -9.99343050e-01   5.75166410e-01
C     4.951112490824999e+00   2.946105721403044e+00   6.765678768000000e+00 -7.77015700e-02   2.12249643e+00  -2.49913000e-02
C     4.822845217499999e+00   2.695177740359505e+00   1.012600267200000e+01  6.09843960e-01  -6.09780330e-01   3.55780570e-01
C     6.079254608250000e+00   3.391138944988595e+00   1.020125419200000e+01 -1.29583594e+00   4.80733160e-01   1.86550200e-01
C     6.185178591600000e+00   2.291359566530034e+00   6.774024544000000e+00  6.58698390e-01  -1.37780420e+00  -1.44339210e-01
C     7.421042675700000e+00   3.004757003608761e+00   6.716717679999999e+00 -5.67432020e-01  -8.86449170e-01   2.65415310e-01
C     7.307183746424999e+00   2.716936526651748e+00   1.022471351200000e+01 -6.81308560e-01  -1.43730209e+00  -5.06367130e-01
C     8.504764839899998e+00   3.401719291313944e+00   1.011092911200000e+01  2.43799136e+00   4.65710200e-02   3.54549500e-01
C     9.882305107124999e+00   4.364394076015373e+00   6.725809280000000e+00 -5.04124880e-01   4.89165030e-01   7.70089200e-01
C     3.716988709050000e+00   5.089428241753456e+00   6.786853423999999e+00 -3.32919690e-01   6.73269430e-01  -1.57243750e-01
C     3.606467623950000e+00   4.812372233535267e+00   1.017291111200000e+01 -1.60249889e+00   3.65378220e-01  -1.58837060e-01
C     4.807684284300000e+00   5.497571082830627e+00   1.019291712000000e+01  1.35758894e+00   2.08930214e+00   1.94870410e-01
C     4.942798736025000e+00   4.409784253598124e+00   6.804011727999999e+00 -1.26417430e-01  -1.17960824e+00  -1.84111600e-01
C     6.146502778575000e+00   5.149917930220464e+00   6.825672583999999e+00  1.23332648e+00  -2.69678138e+00  -1.70363370e-01
C     6.055005737700000e+00   4.812171780264249e+00   1.021084409600000e+01 -4.88799090e-01  -5.47627730e-01  -4.65321890e-01
C     7.258998296174999e+00   5.521482212104459e+00   1.014708226400000e+01  1.43061968e+00   5.30708050e-01   2.55896100e-02
C     7.389895194525000e+00   4.397053229398230e+00   6.780244096000000e+00  9.57300460e-01   1.97693497e+00   2.24390640e-01
C     8.655866468175001e+00   5.121178054562771e+00   6.829865192000001e+00 -1.49995920e-01  -1.36343654e+00  -4.72755070e-01
C     8.524365694125001e+00   4.826900740788727e+00   1.017645540800000e+01 -3.08850680e-01   1.39878690e-01  -4.37748010e-01
C     9.763955416200000e+00   5.545483769499274e+00   1.018217733600000e+01 -9.59037700e-02  -6.69640060e-01   1.70341720e-01
