72
Lattice="7.395 0 0 3.6975 6.40425786098592 0 0 0 13.6 " PBC="1 1 1" Properties=species:S:1:pos:R:3:force:R:3 Energy="-573.19126912"
C     3.675334559775000e+00   6.305067369370170e+00   1.312305221600000e+01  1.51848949e+00  -1.74519227e+00   1.02206683e+00
C     1.325589652725000e+00   5.817529854878742e-01   1.316506220800000e+01 -3.47770923e+00   1.79181142e+00   5.85349700e-01
C     1.336770227175000e+00   9.152995433523943e-01   3.760938832000000e+00 -6.27672300e-02  -1.16149126e+00  -3.28318070e-01
C     2.496438449775000e+00   1.696574812893160e+00   3.711929328000000e+00  2.47555143e+00  -4.55864874e+00  -7.05979600e-02
C     6.291642483900000e+00   6.292342044959772e+00   1.324069507200000e+01 -7.43951652e+00   1.94820783e+00  -6.07276740e-01
C     3.699509554275000e+00   6.059444291282383e-01   1.313426514400000e+01 -3.44527770e-01   2.74711735e+00   1.83405091e+00
C     3.766730621925000e+00   9.330504810332706e-01   3.663614920000000e+00 -1.63961348e+00  -2.68605457e+00   3.25930840e-01
C     5.040608740500000e+00   1.533315101950632e+00   3.606212584000000e+00 -2.92384018e+00   5.54760010e-01   1.30426434e+00
C     8.519802905174998e+00   6.315920408995197e+00   1.328483768000000e+01  4.74806007e+00  -1.45220659e+00  -3.02082990e-01
C     6.078421709400000e+00   4.855444454028168e-01   1.319979919200000e+01  3.61904141e+00   4.24451434e+00  -1.67108940e-01
C     6.205534327425000e+00   7.974775936285159e-01   3.722002168000000e+00  2.24375951e+00   4.07127141e+00   3.52300000e-02
C     7.446654148950000e+00   1.516751257506685e+00   3.752094344000000e+00  1.30097519e+00   2.07646437e+00  -5.08024200e-01
C     1.216001040150000e+00   2.031578659633723e+00   1.320038263200000e+01  8.18238440e-01   3.47628870e-01  -4.27648930e-01
C     2.475945388800000e+00   2.798200731020495e+00   1.322619434400000e+01 -1.66206425e+00  -1.67526425e+00   9.43603920e-01
C     2.510228941575000e+00   3.033008938860100e+00   3.700641872000000e+00  1.33912010e+00   3.85503804e+00  -4.17636260e-01
C     3.714900139200000e+00   3.754892978242006e+00   3.633876072000000e+00  4.03571708e+00   6.66419400e-02   1.55081179e+00
C     3.670807414725000e+00   1.998175907870743e+00   1.332331561600000e+01  1.08197738e+00   2.87805929e+00  -2.66660136e+00
C     4.937605190550000e+00   2.678928985402270e+00   1.307800629600000e+01 -7.40165810e-01   1.88738059e+00   2.24551408e+00
C     4.969601987474999e+00   2.915492472236144e+00   3.792170416000000e+00  7.49685340e-01   3.55309503e+00  -2.16664969e+00
C     6.227008372124999e+00   3.622373961197792e+00   3.753228584000000e+00  2.88715900e-01   1.99571730e+00  -4.22884560e-01
C     6.167192472600000e+00   1.928462935318920e+00   1.310861663200000e+01 -1.97103054e+00   1.17096567e+00   6.66212000e-03
C     7.324904089125000e+00   2.709838303410038e+00   1.306674672000000e+01  2.35430474e+00   1.52708281e+00   5.86514960e-01
C     7.513553792925000e+00   2.982661993778868e+00   3.682484104000000e+00 -1.46912318e+00   1.61516380e-01   8.54454210e-01
C     8.761046773349999e+00   3.798769573522124e+00   3.721372216000000e+00 -3.68572233e+00  -2.63807383e+00  -5.98886010e-01
C     2.452055693400000e+00   4.223752538727322e+00   1.324752240800000e+01 -1.75307270e+00  -1.46652432e+00   2.49036360e-01
C     3.667852224825000e+00   4.853978327276279e+00   1.315357986400000e+01  1.48989794e+00   2.04378029e+00   5.82775930e-01
C     3.848492145300000e+00   5.246276329939445e+00   3.722220720000000e+00 -8.24564160e-01  -3.54127279e+00  -6.05788300e-02
C     5.163811843874999e+00   5.891452730377415e+00   3.709247000000000e+00 -6.53599156e+00   9.27726050e-01   1.77549650e-01
C     4.906891574025000e+00   4.181984801517924e+00   1.316321410400000e+01  4.53534590e-01  -1.74021907e+00  -4.05582700e-01
C     6.123143748374999e+00   4.962336705160435e+00   1.318071540000000e+01  4.22889100e-01  -4.41025649e+00  -4.83634460e-01
C     6.246846310050000e+00   5.112398137249603e+00   3.695966056000000e+00  2.39391680e+00  -2.71015562e+00   6.32192970e-01
C     7.434639418500000e+00   5.832460613568389e+00   3.769559464000000e+00  2.75090703e+00   2.41178451e+00  -1.43464548e+00
C     7.322111367374999e+00   4.270657515421698e+00   1.306304167200000e+01  1.97128137e+00  -4.52735262e+00   1.99137030e+00
C     8.582053127775000e+00   4.949813435085519e+00   1.332547244000000e+01 -1.09516029e+00  -3.59589898e+00  -1.75193520e+00
C     8.741678713725001e+00   5.181630278121298e+00   3.707320288000000e+00 -1.96266603e+00  -2.70148540e-01   1.02547601e+00
C     9.948727810575001e+00   5.873758918676650e+00   3.825949960000000e+00  1.51683382e+00  -2.17546300e+00  -1.42002360e+00
C     1.211425975500000e-01   8.192992697329440e-02   6.731216368000000e+00 -5.47078276e+00   6.33054110e-01   4.38676320e-01
C     1.247558795925000e+00   7.982692879851691e-01   6.874791840000000e+00  1.20500151e+00   3.24012473e+00   4.64389000e-02
C     1.159828028550000e+00   5.040939940388353e-01   1.027986042400000e+01 -2.68485876e+00   2.08977531e+00  -1.16991715e+00
C     2.302457579550000e+00   1.236187253003103e+00   1.013128953600000e+01  4.33512681e+00   7.76540220e-01  -3.72374960e-01
C     2.463086260275000e+00   1.653498045377178e-01   6.971782960000000e+00  3.21353119e+00  -1.61340097e+00  -1.31830620e-01
C     3.806674307700000e+00   7.637251693863792e-01   6.988368976000000e+00 -1.26873442e+00  -7.01100880e-01   3.62117700e-01
C     3.591935746425000e+00   5.422841847224803e-01   9.941906272000001e+00 -4.25073900e-01  -9.17407230e-01   3.03259233e+00
C     4.835455245449999e+00   1.278786455010464e+00   1.022271635200000e+01 -9.15761240e-01  -1.72942292e+00  -2.28017221e+00
C     5.078295324375000e+00   9.965851379423941e-02   7.014188440000000e+00 -1.93645617e+00  -4.14346660e-01  -1.55430118e+00
C     6.258960503250000e+00   8.832638444722093e-01   6.818789896000000e+00  5.91914820e-01  -1.44273282e+00   7.09126300e-01
C     6.114193431975000e+00   5.800689218410087e-01   1.013737839200000e+01 -2.04684431e+00  -4.61990290e-01   6.21880950e-01
C     7.315129673925000e+00   1.295714125343438e+00   1.025695612000000e+01  1.51677936e+00  -7.77910670e-01  -7.77136400e-02
C     8.596971357074999e+00   2.260661460946489e+00   6.899424568000000e+00  2.21482483e+00  -1.78286476e+00   6.19538320e-01
C     2.497403940975000e+00   2.844079489435384e+00   7.072483208000000e+00 -1.24984930e-01   1.40947792e+00  -2.31895349e+00
C     2.388969429075000e+00   2.664561353106253e+00   1.018978096000000e+01 -1.06922450e+00   1.00126172e+00   3.00685800e-02
C     3.619384877175000e+00   3.357870810725831e+00   1.030626931200000e+01 -2.57512310e+00   2.46123175e+00  -1.37817745e+00
C     3.777834658125000e+00   2.128425063801637e+00   7.003246968000000e+00 -3.00844813e+00   2.22155447e+00   5.49509190e-01
C     4.889379696374999e+00   2.914853839642345e+00   7.016418023999999e+00  4.52991398e+00   1.85599939e+00  -4.11867280e-01
C     4.776227285400000e+00   2.693768035119362e+00   1.025130654400000e+01  4.49451321e+00  -1.90552362e+00   3.74581580e-01
C     6.037926652424999e+00   3.403384206229808e+00   1.023022042400000e+01  8.32490150e-01  -1.92083072e+00   2.75134330e-01
C     6.224305906350000e+00   2.323728863202147e+00   6.900248592000000e+00 -2.26046453e+00  -2.92136667e+00  -1.97438190e-01
C     7.424927195250000e+00   3.000047824719145e+00   6.821948495999999e+00 -8.21621580e-01   2.32378095e+00   7.39862800e-01
C     7.367526835500000e+00   2.732367778093153e+00   1.027133404000000e+01 -2.32398658e+00  -6.50410060e-01  -1.15279113e+00
C     8.588451170850000e+00   3.461398905204240e+00   1.013941594400000e+01 -1.50941474e+00  -2.62793267e+00   1.09098692e+00
C     2.475305869200000e+00   4.252660077855790e+00   6.814197176000000e+00 -3.12549910e-01   2.82749500e+00   1.35044579e+00
C     3.675794122050000e+00   5.090628399676421e+00   6.764785928000000e+00  1.93889770e+00  -3.22412311e+00   1.28711972e+00
C     3.641763848025000e+00   4.811268972033725e+00   1.022875040000000e+01 -3.13311114e+00  -4.31256800e-02  -4.05931830e-01
C     4.855134190875000e+00   5.524800001931411e+00   1.021453744800000e+01 -2.36707728e+00  -5.17108600e-01   2.48186180e-01
C     4.927954419750000e+00   4.341694632328654e+00   6.996394472000000e+00 -1.03149582e+00   2.27326380e+00  -1.19104570e+00
C     6.169517312700000e+00   5.169976386050877e+00   6.963458263999999e+00 -2.34677687e+00  -2.38751509e+00   2.16370160e-01
C     5.996956318800000e+00   4.775600906180505e+00   1.021042984000000e+01  2.66829032e+00   3.40744880e-01  -7.15433070e-01
C     7.239855636149999e+00   5.429258529345050e+00   1.008102121600000e+01 -1.57097890e+00   5.46834288e+00  -4.17013940e-01
C     7.359580316400000e+00   4.472010776796764e+00   6.905338392000000e+00  2.43227495e+00  -2.35043991e+00   3.46229200e-02
C     8.629586819700000e+00   5.067530290937915e+00   6.910016656000000e+00  2.39041123e+00   4.36270000e-04  -1.98613350e-01
C     8.431194721050000e+00   4.845324189587482e+00   1.012811706400000e+01  6.30128422e+00  -7.87222190e-01  -4.45062490e-01
C     9.750693149249999e+00   5.541866644659946e+00   1.009626137600000e+01  5.88592010e-01   2.52107010e-01   6.71100380e-01
