72
Lattice="7.395 0 0 3.6975 6.40425786098592 0 0 0 13.6 " PBC="1 1 1" Properties=species:S:1:pos:R:3:force:R:3 Energy="-576.66719286"
C     3.636162542250000e+00   6.194405315891193e+00   1.354096661600000e+01  2.12607761e+00  -4.13111610e-01   4.40527230e-01
C     1.167814665525000e+00   5.301388939464619e-01   1.357264047200000e+01  1.42534831e+00  -1.17175579e+00   1.95857110e-01
C     1.426823985900000e+00   1.013117089182198e+00   3.516491752000000e+00 -7.07667700e-01   1.19835131e+00  -5.03609100e-02
C     2.644261541775000e+00   1.745690987698858e+00   3.468284376000000e+00  1.73965884e+00  -1.03159901e+00   4.67124460e-01
C     6.076685178525000e+00   6.174075063357201e+00   7.598238400000000e-02  2.94042719e+00   9.89427930e-01  -8.99462850e-01
C     3.685321026600000e+00   5.288624613123852e-01   1.358168447200000e+01 -6.68268040e-01  -1.35295755e+00   8.71771260e-01
C     3.920105325300000e+00   1.054207832293216e+00   3.578567184000000e+00 -1.20764007e+00  -1.27251866e+00  -6.14125100e-02
C     5.149233192975000e+00   1.809464587468738e+00   3.666831184000000e+00 -1.68036819e+00  -1.53089968e+00  -4.44274720e-01
C     8.656025867399999e+00   6.215713562642985e+00   5.280036800000000e-02 -1.45751355e+00  -1.23429971e+00  -5.07367580e-01
C     6.206660401050001e+00   5.466516964552645e-01   1.166478800000000e-01 -3.85476485e+00  -4.95757910e-01  -8.47776310e-01
C     6.308998401000000e+00   1.074020428664383e+00   3.658641128000000e+00  3.43266866e+00  -1.79375772e+00  -3.59795660e-01
C     7.608282818549999e+00   1.754772417472074e+00   3.510340880000000e+00 -2.73404761e+00   6.33578860e-01   4.77232290e-01
C     1.243958022525000e+00   1.959869864162410e+00   1.356616605600000e+01 -3.34863446e+00  -2.30782656e+00   6.85134180e-01
C     2.449508485650000e+00   2.623981221474413e+00   1.344126528800000e+01 -1.14370080e-01  -5.73904250e-01   3.94257320e-01
C     2.666167750275000e+00   3.173215306826565e+00   3.495987848000000e+00 -2.67594590e-01  -2.64105877e+00  -1.04835960e-01
C     3.881961693450000e+00   3.806867629500936e+00   3.641812760000000e+00  9.51913770e-01   3.89827123e+00   1.78556630e-01
C     3.647094866550000e+00   1.964533508778641e+00   1.354134306400000e+01  3.76609782e+00  -1.73334960e+00   6.62012280e-01
C     4.928429585475000e+00   2.717015683278897e+00   1.641957920000000e-01 -2.10429029e+00  -3.43208478e+00  -5.95458610e-01
C     5.151964092525000e+00   3.198402612564159e+00   3.680274648000000e+00 -5.04969190e-01   9.03940860e-01  -3.17142760e-01
C     6.360410067900000e+00   3.995536425630751e+00   3.633710967999999e+00 -1.22822877e+00  -5.19987584e+00  -4.56285280e-01
C     6.168666407024999e+00   1.997457350138851e+00   2.120365120000000e-01 -3.51408432e+00  -3.64354226e+00   4.53276900e-02
C     7.341300578925000e+00   2.590498544573340e+00   2.185245280000000e-01  5.29425236e+00   3.43341242e+00  -1.27604283e+00
C     7.535692906949999e+00   3.225537517159558e+00   3.458533176000000e+00  3.06332967e+00  -1.83153505e+00   6.12260080e-01
C     8.856211290525000e+00   3.837473513771298e+00   3.458651903999999e+00 -2.95722276e+00   2.00777421e+00   5.30199960e-01
C     2.485668149925000e+00   3.981671399491586e+00   1.340313129600000e+01 -2.10564644e+00   3.56442395e+00   6.74544270e-01
C     3.676702412925000e+00   4.723949349730611e+00   1.347020268800000e+01 -1.16898313e+00   2.58294626e+00   7.92595450e-01
C     3.852096061575000e+00   5.283231395452211e+00   3.713002912000000e+00 -8.73240600e-02   1.28854170e-01  -6.85674710e-01
C     5.089670904975000e+00   6.012682001453127e+00   3.642238984000000e+00 -1.10390469e+00   2.04804310e-01  -1.02518350e-01
C     4.860521818124999e+00   4.085436643638550e+00   1.849877440000000e-01  2.40230006e+00   1.08733660e-01  -9.72158140e-01
C     6.133502849249999e+00   4.743611638169805e+00   1.970510800000000e-01 -1.73482950e-01   1.66095521e+00   1.11475650e-01
C     6.303669748875000e+00   5.335592223460099e+00   3.606855320000000e+00  1.65879749e+00   1.45491992e+00  -2.15453500e-02
C     7.583065276950000e+00   5.937126808711098e+00   3.576547992000000e+00 -4.47939570e-01   4.53971266e+00   9.00369200e-02
C     7.372682888324999e+00   4.012337035487781e+00   1.959562800000000e-01  8.85335100e-02   1.44741902e+00  -7.82205850e-01
C     8.616210632774999e+00   4.691569293905294e+00   1.354966803200000e+01  4.27891430e-01   2.63354245e+00   7.13605530e-01
C     8.794864699950001e+00   5.255826487345435e+00   3.610173312000000e+00  1.00492102e+00   1.04407540e-01  -4.23436560e-01
C     9.997556921625000e+00   6.019291323649805e+00   3.681811992000000e+00  1.08149708e+00   1.01089540e-01  -7.92001500e-02
C     7.358986276050000e+00   2.037102203952816e-01   7.094407360000000e+00  3.92803360e-01   6.31622110e-01  -1.01858173e+00
C     1.170659448075000e+00   9.018618733402278e-01   6.901679584000000e+00  3.17901605e+00   5.29741800e-02  -5.47448820e-01
C     1.058960006700000e+00   4.086272591417016e-01   9.876833672000000e+00  7.82512680e-01  -1.51144355e+00   4.89008120e-01
C     2.273351044425000e+00   1.130792701613976e+00   9.854492543999999e+00  1.68833498e+00  -1.27519050e+00   1.26091490e-01
C     2.468720917500000e+00   1.679033742742356e-01   6.782344208000000e+00 -1.18690156e+00   1.06832881e+00   4.38758250e-01
C     3.663566970225000e+00   9.473551594745239e-01   6.739146936000000e+00  5.97195390e-01  -1.81856860e-01   3.60642420e-01
C     3.548579083275000e+00   4.065105878763930e-01   9.982232448000000e+00  1.57468500e-01   5.41686190e-01   3.16907700e-02
C     4.826640146625000e+00   1.121676496720580e+00   9.984783127999998e+00 -4.99703737e+00  -2.03393830e-01  -8.21746770e-01
C     4.893950250075000e+00   1.669572732605778e-01   6.909106816000000e+00 -1.01372597e+00   1.30732808e+00  -3.17964620e-01
C     6.122645325375000e+00   8.467588702018447e-01   6.995693800000000e+00 -1.95845810e-01   2.65576107e+00  -3.77458850e-01
C     5.960493644399999e+00   4.217873686182156e-01   1.000694065600000e+01  2.09504949e+00  -3.37213600e+00   1.66629080e-01
C     7.203418030800000e+00   9.966448256256493e-01   9.914639632000000e+00  1.11569329e+00   4.67317618e+00   2.98862550e-01
C     8.637450034124999e+00   2.331149796997421e+00   6.807731599999999e+00 -1.68938500e-02  -1.15913670e-01   2.10683670e-01
C     2.466594152475000e+00   3.125130729876956e+00   6.718634872000000e+00 -8.79398260e-01  -5.99178120e-01   5.58250800e-01
C     2.305559523225000e+00   2.532066352029014e+00   9.732242687999999e+00  4.17745680e-01  -1.98898890e-01   6.52347400e-01
C     3.548707460475000e+00   3.210243957262142e+00   9.712781088000000e+00 -8.63671280e-01   1.50785107e+00   7.05256470e-01
C     3.672854757450000e+00   2.452059815818813e+00   6.686029823999999e+00  1.03837756e+00  -4.01677602e+00   3.72313250e-01
C     4.935915839775000e+00   3.061119275970156e+00   6.755836584000000e+00  6.25329550e-01   1.09919050e+00   2.93931840e-01
C     4.761102624674999e+00   2.479416051565853e+00   9.755915664000000e+00  1.44917580e+00   2.86515869e+00   1.62095587e+00
C     5.972324720024998e+00   3.209255652189186e+00   9.956819895999999e+00  2.01783048e+00   1.39578178e+00  -4.66891320e-01
C     6.161528531175000e+00   2.291842895870728e+00   6.881232256000001e+00 -8.57991580e-01   7.21412710e-01  -2.01617640e-01
C     7.405748817374999e+00   3.021725405021724e+00   6.888523487999999e+00  1.35185550e-01  -1.28955935e+00  -4.08585030e-01
C     7.249364385974999e+00   2.440692578330206e+00   9.954874688000000e+00 -1.23045427e+00   2.40634729e+00  -3.50916390e-01
C     8.496932832375000e+00   3.227740133565348e+00   9.848734168000000e+00 -1.62455925e+00  -1.01232603e+00   8.85978020e-01
C     9.884074582724999e+00   4.545535179371386e+00   6.910208688000000e+00 -1.30080630e+00  -2.62504003e+00  -3.55643150e-01
C     3.668448520650000e+00   5.231004096220703e+00   7.024228232000000e+00  3.34547132e+00  -1.35553622e+00  -1.22910624e+00
C     3.513393636300000e+00   4.648839893335638e+00   9.855181247999999e+00  1.21818778e+00   8.51045100e-01   1.51500300e-01
C     4.799574483600000e+00   5.400166419505058e+00   9.916369143999999e+00 -2.34238781e+00  -2.64193580e-01   5.71555300e-02
C     4.963659957075000e+00   4.530062492381626e+00   6.804506632000001e+00 -2.33891755e+00  -2.74682597e+00   7.77837160e-01
C     6.191308270125000e+00   5.121748161597468e+00   6.815450552000001e+00  2.19617653e+00   2.50616322e+00   1.48272410e-01
C     6.009344348850000e+00   4.768142891732221e+00   9.998671448000000e+00  1.21331093e+00  -5.15461436e+00  -1.47742190e-01
C     7.280265724575000e+00   5.398514953530699e+00   1.005928991200000e+01 -9.36414580e-01  -2.70014060e-01  -1.96890370e-01
C     7.492238925599999e+00   4.409667247807022e+00   6.863765096000000e+00 -5.14494277e+00   4.73557700e-01  -2.69452340e-01
C     8.623717334249999e+00   5.145505716767817e+00   6.940204031999999e+00  1.23106553e+00   2.36112214e+00  -2.70013970e-01
C     8.517617978475000e+00   4.628410374804817e+00   1.000909884000000e+01 -3.00430831e+00   1.00400811e+00  -2.43909980e-01
C     9.645848355224999e+00   5.404563775079469e+00   9.977359159999999e+00  3.16460323e+00  -1.84232077e+00  -6.54437800e-02
