32
Lattice="9.86 0 0 4.93 8.53901048131456 0 0 0 30 " PBC="1 1 1" Properties=species:S:1:pos:R:3:force:R:3 Energy="-255.25814643"
C     5.086684274000000e+00   8.071654895430527e+00  -3.549060000000281e-02 -3.14146204e+00  -3.78860966e+00  -2.58362000e-03
C     1.333737599300000e+00   1.630343878034872e-01  -3.402510000000092e-02  2.59864044e+00   4.58587437e+00   5.13948840e-01
C     7.536858531500000e+00   8.054269555483351e+00  -8.122410000000002e-02 -3.04053079e+00  -2.68934941e+00   2.15108240e-01
C     3.773798405500000e+00   1.904008917106296e-01  -1.845294000000024e-01  2.49023902e+00   1.33068338e+00   1.29018917e+00
C     9.929952657399999e+00   8.020093446888723e+00  -6.140880000000237e-02  8.32698110e-01  -1.92593490e+00  -4.81630950e-01
C     6.247922405800000e+00   1.601464090690464e-01  -7.393800000000184e-02 -3.63142040e-01   2.19272300e-02   5.77658950e-01
C     1.240433272190000e+01   8.016892257249875e+00  -7.505550000000127e-02  1.39449219e+00   5.39701100e-02   1.74405390e-01
C     8.729812980199998e+00   2.311916593834848e-01  -5.594340000000031e-02  2.20598090e-01  -3.50876760e+00   1.00423000e-01
C     1.329413397700000e+00   1.681770324820987e+00   6.318270000000001e-02  1.39196979e+00  -2.51140930e+00  -2.64762513e+00
C     2.579608893200000e+00   2.395187145453503e+00  -1.312277999999978e-01 -1.26823385e+00  -3.66712666e+00   1.47760086e+00
C     3.796747604800000e+00   1.616236066480235e+00  -9.825179999999989e-02 -1.61824796e+00   5.70850940e-01  -6.35803080e-01
C     4.972146274200000e+00   2.321007395172066e+00  -3.494879999999867e-02  4.04130641e+00  -1.17839043e+00   2.24476410e-01
C     6.266601239100000e+00   1.546042753241386e+00   3.333120000000000e-02 -9.89422420e-01   3.43194962e+00  -9.46313860e-01
C     7.482896969999999e+00   2.312559581323992e+00  -7.962599999999043e-03 -2.82229450e-01   1.22352222e+00  -6.76228760e-01
C     8.738176873100000e+00   1.584106758697663e+00  -6.517859999999942e-02 -1.15096101e+00   3.13328255e+00  -7.40720200e-02
C     9.966195848200000e+00   2.324638011647952e+00  -1.290471000000011e-01 -7.50241900e-01  -2.44655680e-01   1.61615950e+00
C     2.552007548700000e+00   3.758167859541295e+00  -6.592050000000071e-02  1.27768800e+00   1.02701669e+00  -2.35738150e-01
C     3.799399895499999e+00   4.437740739086855e+00   9.475800000000000e-03 -1.30964600e-02   2.70416350e-01  -7.97198370e-01
C     5.044239093900000e+00   3.725039402142458e+00  -3.369479999999925e-02 -2.00866640e+00   9.61726780e-01   4.21390180e-01
C     6.206873944000000e+00   4.505447663254138e+00  -4.401060000000001e-02  1.43357539e+00  -1.82457966e+00  -2.25442350e-01
C     7.431723520699999e+00   3.841128103519106e+00  -1.156718999999988e-01  1.90186887e+00  -3.34244728e+00   1.02618218e+00
C     8.690173709600000e+00   4.535722212570349e+00  -7.716839999999792e-02  5.17259190e-01  -3.73457384e+00  -1.49993000e-02
C     9.932905924600000e+00   3.711722729908794e+00  -5.545620000000184e-02  2.00123540e-01   3.62381584e+00  -1.03973847e+00
C     1.121268383580000e+01   4.457246998457053e+00  -1.116375000000005e-01 -2.58555440e+00  -8.29692610e-01   9.05180710e-01
C     3.786280869700000e+00   5.829299557278798e+00  -4.074539999999871e-02  1.41414379e+00   3.01784538e+00   2.15544760e-01
C     5.132827397800000e+00   6.563912080504980e+00  -2.644530000000245e-02 -7.10592874e+00   3.56247196e+00  -2.14187830e-01
C     6.261749034500000e+00   5.896739978928999e+00  -3.125340000000065e-02  3.61039013e+00  -1.64631850e-01   2.61489800e-01
C     7.535751204200000e+00   6.615056654555149e+00  -4.954200000000242e-03 -1.72252578e+00   1.02371702e+00  -5.54768550e-01
C     8.726531177799998e+00   5.918195352831362e+00  -1.972260000000148e-02  4.58953800e-01  -7.85446370e-01  -6.40666100e-02
C     9.970745794499999e+00   6.538005661999811e+00  -1.245000000000118e-02 -8.13401400e-01   3.86409559e+00  -3.72018220e-01
C     1.117838148740000e+01   5.864335885789181e+00  -5.737289999999717e-02  9.41834140e-01   1.80332090e-01  -4.32007000e-03
C     1.238838155900000e+01   6.610882786232525e+00  -6.271019999999794e-02  2.12786375e+00  -1.68788288e+00  -3.30226400e-02
