2
Lattice="2.489 0 0 1.2445 2.15553723001947 0 0 0 30 " PBC="1 1 1" Properties=species:S:1:pos:R:3:force:R:3 Energy="-16.11828407"
C     0.000000000000000e+00   0.000000000000000e+00   3.000000000000000e+00  0.00000000e+00  -0.00000000e+00  -0.00000000e+00
C     1.244500000000000e+00   7.185124100064892e-01   3.000000000000000e+00 -0.00000000e+00   0.00000000e+00   0.00000000e+00
