32
Lattice="9.788 0 0 4.894 8.47665665224208 0 0 0 30 " PBC="1 1 1" Properties=species:S:1:pos:R:3:force:R:3 Energy="-257.95314501"
C    -1.401186286872856e-04   5.709765235551777e-04   2.997083790985041e+00 -1.92462500e-01  -3.77596200e-02   1.50829600e-02
C     1.220862948276388e+00   7.021065536187960e-01   3.000159607420350e+00  1.07576630e-01   4.07251480e-01  -1.10915800e-02
C     2.444555817856057e+00   9.589504725513496e-04   3.003239373918827e+00  5.56258100e-02  -4.56026000e-02  -4.49763200e-02
C     3.669168707852049e+00   7.045570456490534e-01   3.003025870316285e+00  6.63151200e-02   1.39280910e-01  -6.25480100e-02
C     4.892822594474913e+00  -3.809296678117089e-03   2.997677991110596e+00 -7.04710000e-04   1.83507450e-01   6.73863200e-02
C     6.114238316305344e+00   7.090634455878759e-01   3.002322490694586e+00  1.07826890e-01  -2.61839240e-01  -1.38495800e-02
C     7.341812786437161e+00   2.216029898632644e-03   3.002502960749902e+00 -1.92069260e-01  -9.11606200e-02  -3.91901000e-03
C     8.561316952279299e+00   7.087612079163876e-01   2.999961798828442e+00  1.63264900e-01   9.15160000e-03   1.62142500e-02
C     1.225649421430439e+00   2.122769694870788e+00   2.997929065254710e+00 -2.89619740e-01  -4.15193810e-01   1.55350400e-02
C     2.444172222848756e+00   2.823781127892254e+00   2.998355062436231e+00  2.69822110e-01   2.72470300e-02  -8.12064000e-03
C     3.673097708649240e+00   2.121006058802869e+00   2.995316216838264e+00 -1.73826070e-01  -1.79297860e-01   7.09114500e-02
C     4.895177318857881e+00   2.826085333173077e+00   2.998714641747507e+00 -5.81855500e-02  -1.08181800e-02  -1.78061700e-02
C     6.114231321554763e+00   2.116987599696769e+00   3.003702218352297e+00  1.54262300e-01   1.51331160e-01  -3.38613300e-02
C     7.339555685876145e+00   2.824765286928911e+00   3.001478560076292e+00 -7.40728100e-02   1.42758790e-01   1.45801500e-02
C     8.562359553622237e+00   2.123629122353663e+00   3.002804560207145e+00  2.93435900e-02  -2.33444390e-01  -3.14445500e-02
C     9.786575525863471e+00   2.825071275698975e+00   2.998587354120187e+00  1.14158880e-01   1.58004640e-01  -5.46900000e-03
C     2.445534814122778e+00   4.234157452054244e+00   3.001953385359887e+00  1.69120440e-01   1.76999880e-01  -5.34385300e-02
C     3.671192916728288e+00   4.942499239897483e+00   2.999341186220458e+00 -4.57946300e-02   3.78171000e-02   1.64371500e-02
C     4.897236641117032e+00   4.237448776213530e+00   2.996386214408543e+00 -1.84052580e-01   1.01242780e-01   2.02525700e-02
C     6.116678642777538e+00   4.947168711634139e+00   2.997679011067544e+00  1.68291470e-01  -2.01593730e-01   2.54672700e-02
C     7.341991240381377e+00   4.239689366797921e+00   2.998878417895343e+00 -1.03086700e-01  -1.11178620e-01   1.45935400e-02
C     8.565824811605578e+00   4.943209723197047e+00   3.001075734417876e+00 -8.90977500e-02   5.25989800e-02  -1.93133800e-02
C     9.788101583185210e+00   4.239330424088740e+00   2.995951242627054e+00  1.28442340e-01  -8.39414400e-02   3.41961000e-02
C     1.101515286795398e+01   4.944066909881975e+00   2.996961489657560e+00 -2.08453620e-01   1.89796900e-02   3.90566300e-02
C     3.665918842934755e+00   6.358931668392938e+00   3.001809679900679e+00  2.16995030e-01  -2.04091150e-01  -3.17493000e-02
C     4.891011651792356e+00   7.064633117214386e+00   2.996949892748521e+00  1.04816670e-01  -1.00331780e-01   4.96466900e-02
C     6.118219379092143e+00   6.354162044725547e+00   3.002290188018528e+00 -1.59489780e-01   3.67468860e-01  -9.15877300e-02
C     7.340470234693540e+00   7.066672785849201e+00   2.996271068534126e+00  2.07462700e-02  -2.57628060e-01   1.12677220e-01
C     8.562870741824298e+00   6.354227221889990e+00   3.003679522170176e+00  1.43345710e-01   2.49438790e-01  -6.33012200e-02
C     9.791106651325578e+00   7.063051102605211e+00   3.001106452803808e+00 -2.55825270e-01  -1.34495620e-01  -5.12023000e-03
C     1.101289787529149e+01   6.358419528333850e+00   3.000855805909677e+00 -2.96223200e-02  -1.57971920e-01  -3.84981000e-03
C     1.223325488296995e+01   7.061556567642882e+00   3.002900778703439e+00  3.64091600e-02   3.03269500e-01  -1.05909300e-02
