32
Lattice="9.74 0 0 4.87 8.43508743286043 0 0 0 30 " PBC="1 1 1" Properties=species:S:1:pos:R:3:force:R:3 Energy="-257.74562834"
C     3.509895103263956e-04  -2.903774277384912e-04   3.000397021649493e+00 -8.73562000e-03   1.58211600e-02  -2.17510000e-02
C     1.216680989518060e+00   7.040504027646662e-01   2.999626621581325e+00  9.51245700e-02  -1.17361590e-01   9.71499000e-03
C     2.436197413666235e+00  -6.451340242002529e-04   3.000208665543850e+00 -1.16539250e-01   5.01968400e-02   3.78020000e-04
C     3.652272790397457e+00   7.020381833124857e-01   3.000107471860399e+00  4.25407400e-02   5.99137900e-02   3.55806000e-03
C     4.870044259404521e+00   6.497921838368607e-04   3.001056425098981e+00 -3.01258700e-02  -8.38118900e-02  -6.83432000e-03
C     6.086500927737085e+00   7.021831557486042e-01   3.001203361621264e+00  6.25093200e-02   4.82858500e-02  -1.06465200e-02
C     7.304355164511697e+00  -6.355681843196447e-04   3.000314358088064e+00  5.59334700e-02   1.52467000e-02  -4.15459000e-03
C     8.523072109524128e+00   7.033825713111379e-01   2.998858303372397e+00 -6.43554700e-02  -7.38652500e-02   1.64675300e-02
C     1.218480121208310e+00   2.108251828238574e+00   3.000135416592868e+00 -9.90247500e-02   5.50495100e-02  -1.64863000e-03
C     2.434699083295429e+00   2.810543141281700e+00   2.999985753110968e+00  6.73912500e-02   2.47096200e-02   5.80318000e-03
C     3.653315031252656e+00   2.108447972363683e+00   3.000037455443307e+00 -5.95826000e-02  -1.61323500e-02   2.10593000e-03
C     4.869932743170411e+00   2.811418591288870e+00   3.000594473605813e+00  1.18619400e-02   1.97214700e-02  -6.39228000e-03
C     6.087098814463988e+00   2.109004250446877e+00   2.999552284784947e+00  1.02999700e-02  -4.66880200e-02   1.81017200e-02
C     7.304625619782265e+00   2.811074476407070e+00   3.000482008651732e+00  3.23156000e-03   4.79843000e-02  -1.49706700e-02
C     8.521798916824437e+00   2.108205217079983e+00   2.999692932081678e+00  6.96454000e-02   5.78602000e-02   5.90327000e-03
C     9.740177970514017e+00   2.812712077875157e+00   3.000776706405999e+00 -2.05598400e-02  -8.06905700e-02  -8.33830000e-03
C     2.434179845472895e+00   4.216385033294812e+00   3.000693131582142e+00  4.37142500e-02   1.60326200e-02  -9.78990000e-04
C     3.651927427717761e+00   4.920076527950800e+00   3.000765489939745e+00  2.94172600e-02  -3.25627800e-02  -7.88039000e-03
C     4.870748652233119e+00   4.217528039015821e+00   3.000840835800857e+00 -8.47068700e-02  -2.46570700e-02  -8.70225000e-03
C     6.087171737611990e+00   4.919366637408019e+00   2.999425694989878e+00  2.80705000e-02   7.23629400e-02   1.47245400e-02
C     7.304912016534888e+00   4.218014536000091e+00   2.999545718494531e+00  1.95151900e-02  -4.77418800e-02   9.12659000e-03
C     8.522408777080043e+00   4.921246108602875e+00   3.000449235646118e+00 -2.69726000e-03  -1.62160500e-02  -1.44802900e-02
C     9.739571522360967e+00   4.217730753648145e+00   3.000323002710533e+00  1.06447200e-02   5.78229000e-03   5.68892000e-03
C     1.095773488416053e+01   4.919585777620052e+00   3.000287332493023e+00 -3.53556400e-02   6.15617300e-02  -6.82334000e-03
C     3.652484084092505e+00   6.325447770169159e+00   2.998857551305222e+00  4.58155900e-02   8.96703000e-03   1.14123300e-02
C     4.871069344197151e+00   7.028647427220317e+00   2.998921622758327e+00 -6.09489600e-02   1.13926800e-02   1.92880800e-02
C     6.087226569526560e+00   6.325967605225526e+00   3.001184345388169e+00  7.36618100e-02  -7.39559000e-03  -1.77184000e-02
C     7.306070403201729e+00   7.029441085053085e+00   3.001200706130746e+00 -5.53010900e-02  -3.21354400e-02  -1.09864300e-02
C     8.523692941808818e+00   6.327204486916312e+00   2.999176283886378e+00 -6.76625800e-02  -5.60153800e-02   1.77308800e-02
C     9.739679773735574e+00   7.028768906800435e+00   2.999612501996648e+00  5.90819200e-02   7.80144200e-02  -1.11709000e-03
C     1.095698981331554e+01   6.326651273662580e+00   2.998905842497097e+00  5.54922400e-02  -6.70273300e-02   1.57437400e-02
C     1.217605967379663e+01   7.028084959561480e+00   3.000077041092196e+00 -7.83559200e-02   5.33980600e-02  -1.23242900e-02
