32
Lattice="9.9 0 0 4.95 8.57365149746594 0 0 0 30 " PBC="1 1 1" Properties=species:S:1:pos:R:3:force:R:3 Energy="-258.04331254"
C    -2.577983333545666e-03   1.221272591257399e-03   2.997012523068028e+00  2.72270140e-01  -7.08150400e-02   4.32967600e-02
C     1.236444734443279e+00   7.159676592775492e-01   3.000547431694758e+00 -1.39493000e-03  -8.20446800e-02   1.47213200e-02
C     2.473777090088411e+00   2.633653995098709e-03   3.003366101414303e+00  1.04254910e-01  -1.35619150e-01  -1.46431300e-02
C     3.713436405526089e+00   7.149380050855938e-01   3.002459006120977e+00 -1.01634770e-01   2.82731400e-02  -2.77899100e-02
C     4.950936038315493e+00   2.458491166113822e-03   2.998790928701072e+00 -5.96079700e-02  -1.39164100e-01   2.90123300e-02
C     6.186916320444772e+00   7.155907317069240e-01   2.996914297600444e+00  1.37043270e-01  -8.89912000e-02   4.68279000e-03
C     7.424148544923324e+00  -4.457981545554992e-03   2.997815215852144e+00  4.16451400e-02   3.19808660e-01   1.47714800e-02
C     8.666406192979782e+00   7.149797514120805e-01   3.001905882733379e+00 -3.39268970e-01  -1.65587250e-01  -5.19866000e-02
C     1.237195954786463e+00   2.141047728714495e+00   3.003009237416047e+00  1.02888180e-01   2.49634350e-01  -7.84364000e-02
C     2.477231507110451e+00   2.860689907390963e+00   2.996196420570287e+00 -1.12348330e-01  -1.73599860e-01   7.01449800e-02
C     3.712622397329820e+00   2.143267105574663e+00   2.998271600676897e+00  3.16201700e-02   3.95809600e-02  -9.88890000e-04
C     4.951935957074646e+00   2.855586951177149e+00   2.997734934974497e+00 -5.81497700e-02   6.67136900e-02   5.96843000e-03
C     6.188694437937752e+00   2.143659668661558e+00   2.997348069019673e+00 -4.55542100e-02  -6.09067500e-02   1.93319400e-02
C     7.423395953694436e+00   2.856598880046578e+00   3.001585255017897e+00  1.65879020e-01   2.97601600e-02  -2.39448300e-02
C     8.662646800681765e+00   2.140261979929654e+00   3.000683034156277e+00  8.64870000e-04   1.94451030e-01   7.54060000e-04
C     9.900198587304446e+00   2.858511808544764e+00   2.997324963890310e+00 -4.93980000e-02  -1.96127500e-01   5.32259400e-02
C     2.477652081727984e+00   4.289278037440097e+00   3.000857550156899e+00 -1.96348890e-01  -1.50288090e-01   9.09484000e-03
C     3.709442978155262e+00   4.998273442746580e+00   3.003488523500272e+00  3.11160890e-01   2.90145040e-01  -6.27012400e-02
C     4.950448317260639e+00   4.283395997149430e+00   2.999689299616472e+00 -6.54353500e-02   1.66424570e-01  -6.26460000e-04
C     6.185937103106168e+00   5.005518784303898e+00   2.997533757694613e+00  9.35997300e-02  -4.14719380e-01   1.07757000e-02
C     7.426432679664979e+00   4.285497527310094e+00   3.000708373778986e+00 -7.76669800e-02   1.54772950e-01  -2.32708500e-02
C     8.663470850080849e+00   5.004398455319274e+00   2.999125815155050e+00 -5.84004600e-02  -2.61082090e-01   1.62004600e-02
C     9.900042681846479e+00   4.282796170271749e+00   2.998944272524656e+00  4.53126700e-02   3.01612630e-01   1.26908300e-02
C     1.113893225446789e+01   5.000305456348885e+00   3.004059706230167e+00 -9.76521300e-02   2.04043100e-02  -5.03128200e-02
C     3.711937434698910e+00   6.433728114151407e+00   2.996741841582791e+00  7.76706700e-02  -2.28311700e-01   5.01770100e-02
C     4.954206822240053e+00   7.145540801006507e+00   2.997525381112689e+00 -2.73296640e-01  -3.37045600e-02  -3.40001200e-02
C     6.187561464826954e+00   6.426531811467846e+00   2.995700355209299e+00  1.35517430e-01   3.30963130e-01   4.07766100e-02
C     7.429091963786861e+00   7.144646346111013e+00   3.001632208157972e+00 -3.61084270e-01   8.03838300e-02  -1.87589000e-02
C     8.658708921987476e+00   6.431455325986194e+00   3.001758632071216e+00  2.99198400e-01   1.58228000e-03   3.22130000e-03
C     9.898601766663214e+00   7.145256329945006e+00   3.002955425242806e+00  4.22056700e-02   3.41233600e-02  -2.86496700e-02
C     1.113682400691429e+01   6.430109754206027e+00   3.001175702475380e+00 -1.21677530e-01  -6.19066900e-02   1.89694700e-02
C     1.237180367057892e+01   7.144873580548354e+00   2.998211512056844e+00  1.57788030e-01  -4.57660400e-02  -1.70643000e-03
