32
Lattice="10.084 0 0 5.042 8.73300017176228 0 0 0 30 " PBC="1 1 1" Properties=species:S:1:pos:R:3:force:R:3 Energy="-256.93468358"
C    -7.343634976332818e-03   6.650466889752437e-03   2.994968204125179e+00  4.24904030e-01  -5.99413520e-01   1.54734260e-01
C     1.270777177896140e+00   7.239862484301139e-01   2.994373400473237e+00 -6.13547250e-01  -1.00640100e-01   1.74149120e-01
C     2.524695100740453e+00   2.544143835153750e-03   3.009563499381334e+00 -1.32377900e-02  -2.94721450e-01  -2.61812510e-01
C     3.774335398331011e+00   7.227613831936478e-01   2.992630857681312e+00  5.41874390e-01   1.58307280e-01   1.10040230e-01
C     5.042519026032577e+00  -1.204262641399362e-02   2.988809247303635e+00 -8.63465400e-02   4.33006980e-01   1.56525500e-01
C     6.294406813064075e+00   7.246337575635464e-01   3.005581224021663e+00  3.41976260e-01   2.74300770e-01  -1.39384200e-01
C     7.560631703753136e+00   5.076316402837807e-03   2.991609837757179e+00 -8.77951700e-02  -2.79025120e-01   2.27129150e-01
C     8.825465820177172e+00   7.257525698659553e-01   3.004585123848435e+00 -2.52329900e-01   2.07148630e-01  -2.09600630e-01
C     1.262341865840109e+00   2.168228958599090e+00   3.009404578294209e+00 -1.50017570e-01   6.36395590e-01  -1.61274600e-01
C     2.515031954805154e+00   2.912349138617161e+00   3.008333652165820e+00  2.88961980e-01   4.72385100e-02  -3.60235900e-02
C     3.788731576168828e+00   2.184163507160656e+00   3.000654010074805e+00 -6.90687470e-01  -2.56092700e-01   4.51636700e-02
C     5.037951060557855e+00   2.899293275879856e+00   3.008288423717310e+00  5.00877430e-01   6.28621250e-01   1.11128000e-02
C     6.306465174949451e+00   2.189803751422121e+00   3.011513397795929e+00 -2.82028010e-01  -5.86955740e-01  -1.64574500e-01
C     7.567510638254841e+00   2.904610746739827e+00   2.987064849072294e+00 -2.52092040e-01   6.29791420e-01   2.69009750e-01
C     8.816767933311661e+00   2.185143398795033e+00   2.989442653810770e+00  2.45976450e-01  -3.60783520e-01   5.18756200e-02
C     1.007278480366059e+01   2.901880842961430e+00   2.994068154797823e+00  5.00547960e-01   3.23689660e-01   9.38123600e-02
C     2.515908051125107e+00   4.379141211005402e+00   3.001626821091134e+00  3.72192090e-01  -5.84201140e-01   5.33912000e-03
C     3.782254585944521e+00   5.103899463646303e+00   2.997229007164666e+00  1.12829040e-01  -7.57218110e-01   3.80871800e-02
C     5.049601177207604e+00   4.360464347284625e+00   3.008529477651564e+00 -4.42996510e-01   2.55883360e-01  -8.31630200e-02
C     6.299356513014458e+00   5.099951525569220e+00   3.002113668221869e+00  3.36089880e-01  -2.10943890e-01   3.54342700e-02
C     7.574702458097446e+00   4.372983349261904e+00   3.010071625002251e+00 -6.65424080e-01  -3.67225190e-01  -2.28229720e-01
C     8.821218405699925e+00   5.089084185613389e+00   2.999615025604067e+00  3.55841740e-01   5.50420620e-01   7.15539000e-03
C     1.007864005678038e+01   4.365191898305669e+00   3.001057259281685e+00  3.81124630e-01  -1.60416680e-01  -5.60562700e-02
C     1.135501896668436e+01   5.100779509697349e+00   2.999570191080174e+00 -7.21332090e-01  -4.67564930e-01   7.71170000e-04
C     3.780447826561467e+00   6.540416224494957e+00   2.993054882911158e+00 -1.96594150e-01   5.97163500e-01   1.89272320e-01
C     5.035232717354800e+00   7.265291141834472e+00   3.012600731050714e+00  9.08043800e-02   8.28893550e-01  -3.05509910e-01
C     6.294838645404680e+00   6.557933830827154e+00   2.992121574817157e+00  4.56710760e-01  -3.42738070e-01   1.59800850e-01
C     7.573922038901172e+00   7.278839186759093e+00   2.992586377288297e+00 -4.37664180e-01   1.01559310e-01   6.45662900e-02
C     8.830183629899823e+00   6.561018486246705e+00   2.991099536278115e+00 -4.17434000e-02  -5.95038430e-01   8.38096700e-02
C     1.009711019974277e+01   7.273564509190868e+00   2.999349544285270e+00 -4.15159400e-01  -4.09671900e-02  -1.38634900e-01
C     1.135040802924232e+01   6.541001167581731e+00   2.995708892324671e+00  1.32426000e-03   5.46943970e-01   9.16426000e-02
C     1.259806069288658e+01   7.281771286553359e+00   3.003775874300502e+00  3.96960280e-01  -2.15418620e-01  -1.85167490e-01
