32
Lattice="9.736 0 0 4.868 8.43162333124529 0 0 0 30 " PBC="1 1 1" Properties=species:S:1:pos:R:3:force:R:3 Energy="-257.72227174"
C     8.853918048775819e-04  -5.235388806359565e-04   2.998961306048596e+00 -9.14329000e-03   4.07964200e-02   1.78758900e-02
C     1.217640719355340e+00   7.025201957899715e-01   3.000102950591337e+00 -1.94257500e-02   3.13625900e-02  -1.83220000e-04
C     2.434551631495402e+00   8.492350319344770e-04   3.000652798745987e+00 -1.44829900e-02  -5.39841700e-02  -8.96075000e-03
C     3.651567471822561e+00   7.020072725615037e-01   3.000536231357678e+00 -5.34887900e-02   7.93273200e-02  -1.49994000e-03
C     4.866925090362346e+00  -2.198658337319531e-04   3.000269376314570e+00  8.97172500e-02  -1.88603500e-02  -3.89686000e-03
C     6.084405896804684e+00   7.021136030754223e-01   3.000448984759736e+00  3.94378200e-02   4.88705800e-02  -1.28284500e-02
C     7.302829798635936e+00   7.524794245253992e-04   2.998783154548667e+00 -5.22680900e-02  -3.45270200e-02   2.15126700e-02
C     8.520031066970555e+00   7.033824308108710e-01   3.001109934183923e+00 -1.85353100e-02  -6.73212000e-03  -3.66218300e-02
C     1.216962830361439e+00   2.108301537936019e+00   3.000569085404574e+00  2.73174000e-02  -2.50151600e-02  -1.20210000e-04
C     2.433917516917079e+00   2.811284571330539e+00   2.999849061645259e+00 -1.43808000e-02  -1.64861700e-02   9.48463000e-03
C     3.650097082800935e+00   2.108251827304163e+00   2.999948018773228e+00  5.58034400e-02  -3.60739800e-02   3.68919000e-03
C     4.868384865959160e+00   2.809526991449851e+00   3.000398502118611e+00 -4.15971600e-02   4.87668200e-02  -9.40785000e-03
C     6.084977948167077e+00   2.108527268405394e+00   2.999824442883351e+00 -1.59000000e-03  -9.96120000e-02   1.65729600e-02
C     7.301585759004954e+00   2.810486832258819e+00   3.001021152748844e+00  5.01399000e-03   2.12577300e-02  -2.27179800e-02
C     8.518531546125867e+00   2.109086126383992e+00   2.999059846089148e+00  6.68730000e-02  -3.20599300e-02   3.44145900e-02
C     9.737145233960613e+00   2.811449872700364e+00   3.001088635800413e+00 -7.14650000e-02  -7.48580200e-02  -2.27291400e-02
C     2.433358810600590e+00   4.216681908284247e+00   3.000738794415932e+00  1.61049000e-02  -3.56402600e-02  -1.14494500e-02
C     3.650179753649832e+00   4.917950470670488e+00   3.000163304806739e+00  9.64590000e-02   3.33121400e-02  -5.56413000e-03
C     4.868920934885955e+00   4.214686923010653e+00   2.999658319497440e+00 -7.50716600e-02   5.26837200e-02   1.56710800e-02
C     6.085373859911665e+00   4.919039594915986e+00   3.001123365566810e+00 -4.23172800e-02  -7.84978800e-02  -1.72670600e-02
C     7.301084474005898e+00   4.215568061618313e+00   3.000129896938388e+00  7.65311500e-02   3.43202800e-02   1.14750700e-02
C     8.518941264410220e+00   4.918454699623084e+00   2.999736049537316e+00  1.59348800e-02  -4.26035200e-02  -4.24564000e-03
C     9.737158490210359e+00   4.214685008277104e+00   2.999207539860948e+00 -7.40349400e-02   1.08437000e-01   1.24884700e-02
C     1.095271791364008e+01   4.918458383807878e+00   2.999685142064007e+00  2.00667600e-02   2.30763100e-02   1.02999400e-02
C     3.651685598945591e+00   6.324306199746863e+00   2.998794779922934e+00 -7.00373900e-02  -5.12887500e-02   1.07331600e-02
C     4.868340871882721e+00   7.026168976337707e+00   2.999423614889812e+00 -7.51892000e-03  -2.98271000e-03  -7.87713000e-03
C     6.084438280160914e+00   6.322508288139647e+00   2.999935216764225e+00  7.19872000e-02   1.07494640e-01   2.86619000e-03
C     7.302098027786838e+00   7.027104945618224e+00   2.999694902118407e+00 -7.26370000e-04  -5.65012900e-02   6.35199000e-03
C     8.519953602469247e+00   6.323710765849212e+00   2.999677127906107e+00 -4.07942800e-02   5.88467000e-03  -5.01240000e-03
C     9.737156912214084e+00   7.026101526253590e+00   2.999126404318185e+00 -4.80625800e-02   1.39457200e-02   1.72069000e-02
C     1.095389804304870e+01   6.324114081371965e+00   3.000838659088233e+00 -6.11792100e-02  -4.33807200e-02  -2.30805800e-02
C     1.216886404162493e+01   7.026048140521482e+00   2.999191474639485e+00  1.34873030e-01   5.95681500e-02   2.81988000e-03
