32
Lattice="9.996 0 0 4.998 8.65678993622925 0 0 0 30 " PBC="1 1 1" Properties=species:S:1:pos:R:3:force:R:3 Energy="-257.60772612"
C    -2.609698681219467e-03  -1.076701623342325e-02   3.005795439096004e+00 -1.47288530e-01   6.06489900e-01  -7.52892700e-02
C     1.251795302621070e+00   7.174485027961364e-01   2.996258722856771e+00 -5.00949270e-01   4.96135800e-02   8.58486200e-02
C     2.487630643937102e+00   2.310733747772156e-03   3.007334640709558e+00  4.84735360e-01  -5.01035340e-01  -1.69374820e-01
C     3.736487741859483e+00   7.144200496402706e-01   2.997672690157784e+00  4.53003670e-01   1.39880310e-01   2.24464700e-02
C     4.997539177724954e+00   4.072833444016204e-03   3.000150217776816e+00  1.23341290e-01  -1.36768850e-01  -1.39636500e-02
C     6.256980285805402e+00   7.218629163977286e-01   3.008189231586279e+00 -5.48898210e-01   1.67094580e-01  -6.52110200e-02
C     7.492286338468889e+00  -1.936291544429420e-03   3.010493439053621e+00  9.09597400e-02  -2.40317890e-01  -1.00165950e-01
C     8.732202177118410e+00   7.125552842861094e-01   3.007283571720067e+00  6.77837970e-01   1.94344610e-01  -1.13904100e-01
C     1.248271424800602e+00   2.157611852520262e+00   2.992746941409831e+00  3.01764090e-01   4.05380050e-01   8.85515800e-02
C     2.506799372858066e+00   2.894399452064966e+00   2.992795522934887e+00 -1.19477190e-01  -1.02576656e+00  -6.39160000e-04
C     3.757534533053259e+00   2.154615269155749e+00   2.992984128135865e+00 -4.70282320e-01   2.72826410e-01   1.17021360e-01
C     5.000308768175693e+00   2.875007076882361e+00   3.011424370639666e+00  2.90120880e-01   3.27846010e-01  -2.20471920e-01
C     6.259023749507330e+00   2.166987180934937e+00   3.000244773634710e+00 -3.36329330e-01  -1.91384780e-01   8.66754900e-02
C     7.500449294717998e+00   2.891643948418743e+00   2.992735984929337e+00  5.27089300e-02  -6.55692990e-01   5.37820000e-02
C     8.739758384216103e+00   2.156803991829607e+00   2.985392419139311e+00  3.00680370e-01   1.49498740e-01   2.49293200e-01
C     9.996719836476043e+00   2.882636275835311e+00   3.006502121538547e+00 -7.96163400e-02  -4.51038260e-01  -2.29852310e-01
C     2.513923141155446e+00   4.319213090505520e+00   2.996647677264016e+00 -7.23662970e-01   3.47359550e-01   5.39194600e-02
C     3.749435783348351e+00   5.035547921604278e+00   3.000859131588702e+00  3.88501630e-01   7.16440520e-01  -6.47682500e-02
C     5.001039061332278e+00   4.328361089674549e+00   2.998424262009229e+00  1.42331520e-01  -3.96396660e-01   1.33489860e-01
C     6.254608247650329e+00   5.044204017408235e+00   3.007697793338378e+00 -1.44142730e-01   4.16975430e-01  -1.48418700e-02
C     7.502739800052910e+00   4.316454615091172e+00   3.007925626777815e+00 -1.50814060e-01   7.23476700e-01  -9.74130600e-02
C     8.744584705780870e+00   5.042496343434488e+00   3.001607658247150e+00  3.91311090e-01   3.08223540e-01   6.73500000e-05
C     1.000263455386187e+01   4.317863143863322e+00   3.000255619847937e+00 -2.85584140e-01   3.97989180e-01   6.94809400e-02
C     1.124769550782323e+01   5.042369280222785e+00   3.004735026319223e+00  3.34703800e-01  -7.66386000e-03  -7.17849900e-02
C     3.752686444490636e+00   6.487928005820152e+00   2.998397512901264e+00 -4.26689700e-02  -5.21652200e-02  -1.27774200e-02
C     5.001925423145667e+00   7.217612034362062e+00   2.998169191458079e+00 -4.16260100e-02  -4.08481510e-01   1.25353640e-01
C     6.258646452047623e+00   6.505708851999640e+00   3.009829850157453e+00 -4.22326350e-01  -1.08014601e+00  -1.09290170e-01
C     7.499436071741940e+00   7.203328254851448e+00   3.000257248267324e+00  3.22761600e-02   8.83775380e-01   9.04631500e-02
C     8.745435694121543e+00   6.498343044177972e+00   2.996184188532752e+00  4.89471750e-01  -5.75430790e-01   1.39490400e-02
C     1.000731693048941e+01   7.218849521184068e+00   2.991968879314578e+00 -3.18193620e-01  -2.46073700e-01   1.16854030e-01
C     1.125715619926541e+01   6.485620490933522e+00   3.002696574582808e+00 -3.99687300e-01   9.51334800e-02  -8.67228200e-02
C     1.249819796356894e+01   7.212636025492702e+00   2.995478703993739e+00  1.77799100e-01  -2.33985540e-01   1.39274640e-01
