72
Lattice="7.395 0 0 3.6975 6.40425786098592 0 0 0 13.6 " PBC="1 1 1" Properties=species:S:1:pos:R:3:force:R:3 Energy="-570.69985072"
C     3.691036659075000e+00   6.241094469095687e+00   1.354678279200000e+01 -9.26665400e-01  -1.51269808e+00   7.43479910e-01
C     1.114386086325000e+00   6.038981406568110e-01   2.539759200000000e-02  4.38986045e+00  -4.82654179e+00  -3.32755670e-01
C     1.418954485725000e+00   9.706688355325963e-01   3.755860183999999e+00 -1.59891645e+00   2.32906580e-01  -6.86934900e-02
C     2.632147089750000e+00   1.696960157088597e+00   3.909040112000000e+00 -8.94318390e-01   6.23599900e-01   1.82222350e-01
C     6.032653610700000e+00   6.207729886709552e+00   1.346810148800000e+01  3.89945607e+00   6.15813290e-01  -6.97714870e-01
C     3.608628775725000e+00   5.838214326914971e-01   1.341766289600000e+01  1.80038778e+00  -1.57338978e+00   1.43751680e+00
C     3.805116846750000e+00   9.334330073552485e-01   3.804962848000000e+00  2.44618485e+00   4.39994332e+00  -1.42577619e+00
C     5.009325819900000e+00   1.739109652109029e+00   3.521348448000000e+00  2.84486616e+00  -1.71651792e+00   1.98870448e+00
C     8.694279869624999e+00   6.198126125665274e+00   1.326630373600000e+01 -3.37052606e+00   1.46042771e+00   2.13493280e+00
C     6.234265011675000e+00   5.585252545702830e-01   1.339896384800000e+01 -4.86688892e+00  -2.84532030e-01  -6.31437000e-01
C     6.345089180850000e+00   1.055397102977818e+00   3.472854112000000e+00 -2.18077658e+00  -2.32860807e+00   1.30237400e-01
C     7.562944923975000e+00   1.729033256834684e+00   3.752127392000000e+00  6.95153800e-02  -1.75722898e+00  -8.60394210e-01
C     1.212299325000000e+00   1.937816482008607e+00   6.804841600000000e-02  2.73397930e-01   3.43105659e+00   1.81854950e-01
C     2.456171602500000e+00   2.666927534257787e+00   1.690447360000000e-01 -1.02765171e+00   6.89994690e-01   2.28135230e-01
C     2.677915521225000e+00   3.176353265092808e+00   3.962243448000000e+00 -2.74517816e+00  -1.16590691e+00  -2.09787357e+00
C     3.871612723725000e+00   3.830316755612748e+00   3.477371624000000e+00 -2.02213142e+00  -1.58991816e+00   3.10321514e+00
C     3.702589571775000e+00   2.068824606538490e+00   2.129269040000000e-01 -1.75280261e+00  -5.80661570e+00  -3.45978671e+00
C     4.836735356925000e+00   2.680974313235018e+00   1.333591302400000e+01  3.32992210e+00  -1.03946291e+00   1.36705599e+00
C     5.092787231925000e+00   3.167397807071699e+00   3.657859536000000e+00 -8.90075040e-01  -2.94206456e+00  -2.14852901e+00
C     6.319336278224999e+00   3.775307895064907e+00   3.601605584000000e+00  3.61067790e-01   4.40371161e+00   5.29359060e-01
C     6.110696743200000e+00   1.979724408422561e+00   1.328954912800000e+01  2.51399092e+00  -4.70654320e-01   1.12891153e+00
C     7.428179442299999e+00   2.677529398889545e+00   1.348084414400000e+01 -3.33326747e+00   4.69755000e-03  -2.47067502e+00
C     7.510453254299999e+00   3.123340803847665e+00   3.828783928000000e+00  1.43557525e+00   2.58115120e-01   4.45402620e-01
C     8.707246780275000e+00   3.904066780191778e+00   3.975298224000000e+00  3.98873923e+00  -2.47974536e+00  -2.42617547e+00
C     2.446850574750000e+00   4.070016279435507e+00   7.754189600000000e-02  5.13822800e-02   1.16080467e+00   3.97474610e-01
C     3.699583134525000e+00   4.793144281864138e+00   1.011716240000000e-01  2.52342620e-01   1.02247790e-01  -2.08659965e+00
C     3.838831132425000e+00   5.176261076416631e+00   3.418795200000000e+00  9.42969810e-01   4.77561469e+00  -5.61435970e-01
C     5.098622552475000e+00   5.929495174832230e+00   3.516080080000000e+00 -4.60031700e-01   1.89275363e+00   7.00141960e-01
C     4.932237751650000e+00   4.040587946057864e+00   1.337641586400000e+01 -1.43513221e+00   2.61322404e+00   6.64945460e-01
C     6.166371035999999e+00   4.708101181102519e+00   1.321367132800000e+01 -1.74797625e+00   4.00673908e+00   5.37223110e-01
C     6.351765830550000e+00   5.319421536406177e+00   3.600493648000000e+00 -1.83719545e+00  -4.50849839e+00   3.02319160e-01
C     7.540039946774999e+00   5.990134530805426e+00   3.744247144000000e+00  1.60282695e+00  -2.10376744e+00  -1.87621188e+00
C     7.410998860650000e+00   4.068601706959390e+00   1.311835341600000e+01  6.43803900e-01  -2.90618220e-01   3.65496228e+00
C     8.597414317575000e+00   4.774852568649564e+00   1.350907760800000e+01  1.28970900e+00   1.75894261e+00  -2.70116472e+00
C     8.779431002174999e+00   5.212316151572330e+00   3.498062936000000e+00 -3.37772380e-01   2.84397386e+00   2.19618888e+00
C     1.003039800570000e+01   5.936571559554636e+00   3.350920728000000e+00 -6.97169840e-01   1.09122842e+00   1.07886631e+00
C     7.400818607849999e+00   1.313412099811812e-01   6.858737855999999e+00  5.76558410e-01   3.13332165e+00   1.16751480e-01
C     1.242930709125000e+00   8.559245159659195e-01   7.000910624000000e+00 -3.61364310e-01   1.86190166e+00  -2.40112830e-01
C     1.083988827900000e+00   4.505866757888496e-01   9.872406872000001e+00 -4.96140160e-01   4.95782910e-01  -1.03598801e+00
C     2.346532629975000e+00   1.187177196750145e+00   1.009058772800000e+01 -1.40822496e+00  -2.88932896e+00  -9.37526890e-01
C     2.444184418424999e+00   1.328078490736998e-01   7.016900007999999e+00  2.73747409e+00   1.24831353e+00  -7.27263660e-01
C     3.758706825075000e+00   8.880464801994787e-01   7.011136464000001e+00 -2.74366376e+00  -1.81663740e-01   9.53085700e-02
C     3.587699113950000e+00   4.754022784002492e-01   9.950818895999999e+00 -4.61857201e+00  -3.71118957e+00   1.02599300e+00
C     4.743315948824999e+00   1.062804972087058e+00   9.987913168000000e+00  5.90791133e+00   4.65091624e+00  -1.75709599e+00
C     4.983572806349999e+00   1.778117858649132e-01   6.899527927999999e+00 -1.54627764e+00  -5.50806560e-01  -3.81177990e-01
C     6.174210142724999e+00   8.756671778412559e-01   6.838317048000000e+00  1.67205144e+00  -2.06714530e-01   6.83145450e-01
C     6.042879971325000e+00   3.999326465432298e-01   9.711409528000001e+00 -2.39700456e+00   4.14649522e+00   7.98139470e-01
C     7.208682938024999e+00   1.146965373987833e+00   9.650402375999999e+00  2.67356403e+00  -4.96745290e-01   2.38739106e+00
C     8.629733129775000e+00   2.396719791097031e+00   7.081507624000000e+00  2.55081918e+00  -4.62867755e+00   4.10832510e-01
C     2.450335838250000e+00   3.107052726747169e+00   7.238031248000000e+00  1.68338138e+00  -5.03843529e+00  -2.34055700e+00
C     2.314006461975000e+00   2.558836662224443e+00   1.016268078400000e+01 -1.03060456e+00   1.16321748e+00  -8.53075330e-01
C     3.541991395425000e+00   3.253601679570442e+00   1.014995948000000e+01  8.40496590e-01   1.75454196e+00  -2.06581991e+00
C     3.700712868675000e+00   2.320745695848380e+00   7.074916383999999e+00  6.35888450e-01   3.76073890e-01   4.83870420e-01
C     4.954999487699999e+00   3.056801717448679e+00   7.026862823999999e+00 -4.15359020e-01  -3.15929673e+00  -4.70382150e-01
C     4.751947540725000e+00   2.516760559999086e+00   9.897897624000001e+00  5.98772740e-01   1.64802613e+00   1.00208223e+00
C     6.020555982299999e+00   3.306973932022161e+00   9.668147248000000e+00 -1.50020774e+00  -2.91139224e+00   2.17651216e+00
C     6.237033995474999e+00   2.246973000196525e+00   7.018960815999999e+00 -2.10489323e+00   3.53015453e+00  -9.65402330e-01
C     7.449451418624999e+00   3.012752655504392e+00   7.073139544000000e+00 -3.26352162e+00   2.15515872e+00  -1.11078660e+00
C     7.219956356699999e+00   2.529976834817032e+00   9.793915287999999e+00  6.28402370e-01   2.26596331e+00  -7.40044710e-01
C     8.456251865100000e+00   3.236561550469447e+00   9.868498232000000e+00  6.85694620e-01   1.91994868e+00   1.99840076e+00
C     9.873239391749999e+00   4.411205294374679e+00   6.942698544000000e+00  4.65519650e-01   4.03477085e+00   7.13206790e-01
C     3.700776317775000e+00   5.180497364905864e+00   6.925827879999999e+00 -5.65950400e-01  -2.84139308e+00  -8.17196170e-01
C     3.507843282074999e+00   4.739187000456909e+00   9.852623360000001e+00  1.98597141e+00  -2.75678688e+00   6.33818220e-01
C     4.694297229975000e+00   5.435349939208590e+00   9.717308256000001e+00  4.70431963e+00  -6.20744630e-01   1.74627419e+00
C     4.881674069400000e+00   4.440821400592778e+00   6.928461656000001e+00  3.73194650e+00   4.29875780e-01   2.11964800e-01
C     6.203681399250000e+00   5.111418157711866e+00   6.916963264000000e+00 -4.08253870e+00   2.35967887e+00   2.90567180e-01
C     6.021175387500000e+00   4.670288137164250e+00   9.773008688000001e+00 -6.03217760e-01   3.25111007e+00  -3.77574500e-02
C     7.306496344200000e+00   5.428586978865851e+00   9.855015463999999e+00 -3.50226416e+00  -2.67899580e-01   2.19375270e-01
C     7.395599253825000e+00   4.493398884644069e+00   6.994474424000000e+00  3.21822753e+00  -3.22736454e+00  -1.88732050e-01
C     8.686577015774999e+00   5.152824438607646e+00   6.922577752000000e+00 -2.49873471e+00   5.81626190e-01  -8.99350900e-02
C     8.479636371074999e+00   4.733669860395676e+00   9.917391864000001e+00  1.77671265e+00  -1.60369981e+00  -8.32541010e-01
C     9.774608283450000e+00   5.497671373508714e+00   9.786338320000000e+00 -3.93063326e+00  -5.83466535e+00   1.29501335e+00
