72
Lattice="7.395 0 0 3.6975 6.40425786098592 0 0 0 13.6 " PBC="1 1 1" Properties=species:S:1:pos:R:3:force:R:3 Energy="-581.96270843"
C     3.663739495575000e+00   6.273142912449013e+00   1.353210988800000e+01  8.06895100e-02   6.00405270e-01   2.65084140e-01
C     1.179387359850000e+00   6.048252850672032e-01   1.353638504800000e+01  8.52371620e-01  -2.97587770e-01   2.18822300e-02
C     1.310552511825000e+00   8.278605456827706e-01   3.438136440000000e+00 -6.31230710e-01   1.59517139e+00   8.89690200e-02
C     2.526480526350000e+00   1.570765024468240e+00   3.431560296000000e+00  1.08075728e+00  -1.25226946e+00   3.09986680e-01
C     6.108877536225000e+00   6.293127142930829e+00   1.355195269600000e+01  1.11968932e+00  -8.04735060e-01   2.45387200e-02
C     3.666723193200000e+00   5.879738894453425e-01   1.352310369600000e+01  2.79353270e-01   4.05553900e-02   3.43118660e-01
C     3.787750539675000e+00   8.763027363912823e-01   3.480121272000000e+00 -7.31378740e-01  -1.37820054e+00  -2.01870560e-01
C     5.023846863749999e+00   1.601049350951451e+00   3.484593360000000e+00 -1.03882288e+00  -8.47682220e-01   1.20947540e-01
C     8.629000322250000e+00   6.293751622114757e+00   1.353146375200000e+01 -3.15786860e-01  -2.97624420e-01   2.09624870e-01
C     6.171032917950000e+00   6.536304691112197e-01   1.356760235200000e+01 -1.56264240e+00  -2.73859831e+00  -2.24302570e-01
C     6.216366005775000e+00   8.885932757355655e-01   3.481985288000000e+00  1.74322855e+00  -1.54640858e+00  -7.37201100e-02
C     7.476120302925000e+00   1.586160283980472e+00   3.444083992000000e+00 -1.00609564e+00  -9.32636940e-01   9.66107300e-02
C     1.186131082200000e+00   2.050816537904534e+00   1.352970608800000e+01  1.92979395e+00  -2.79993842e+00   4.04887900e-02
C     2.433794369475000e+00   2.716402795801695e+00   1.347999536800000e+01  1.82305170e-01   1.29357960e-01   3.49529280e-01
C     2.542489998825000e+00   2.978492949997165e+00   3.458441920000000e+00 -4.68094900e-01  -2.37032900e-02  -1.73579210e-01
C     3.766882182450000e+00   3.671361986803711e+00   3.479789160000000e+00  7.23684390e-01   1.24650199e+00   2.73670690e-01
C     3.661596646425000e+00   2.028572180781346e+00   1.354146056800000e+01  1.20784293e+00  -7.76208260e-01  -3.18185030e-01
C     4.921879538175000e+00   2.754229288681471e+00   1.358831460800000e+01 -9.17890910e-01  -8.14795970e-01   6.69447200e-02
C     5.028991565250000e+00   2.994952340995415e+00   3.507773879999999e+00 -6.92565110e-01   1.77406443e+00  -4.68884650e-01
C     6.243002980649999e+00   3.783198389046476e+00   3.467247240000000e+00 -1.01985036e+00  -4.58156012e+00   1.07639780e-01
C     6.164242644075000e+00   2.051576787355095e+00   2.267541600000000e-02 -1.41455787e+00  -8.56125580e-01  -1.38442330e-01
C     7.389278710349999e+00   2.694579198419909e+00   2.830976000000000e-02 -1.12630627e+00   2.66962675e+00  -3.77017600e-01
C     7.430386812825001e+00   3.002152584064834e+00   3.435066240000000e+00  2.47918425e+00   8.65464420e-01   1.56133200e-01
C     8.719135610850000e+00   3.687472922131799e+00   3.447895936000000e+00 -1.38878142e+00   3.89984830e-01  -1.04845900e-01
C     2.462437312050000e+00   4.123622991767480e+00   1.347538156800000e+01 -4.07317700e-01   1.64307350e-01   4.42557800e-01
C     3.669837856275000e+00   4.831748379733275e+00   1.352809421600000e+01  1.21335760e-01   1.80626271e+00  -9.42034800e-02
C     3.754281509175000e+00   5.116365895206767e+00   3.502422960000000e+00 -2.08377020e-01  -1.42465400e-01  -2.43912190e-01
C     4.992544198500000e+00   5.825673253003204e+00   3.478683752000000e+00 -8.38554590e-01   3.47693430e-01  -2.52281000e-02
C     4.900530099225000e+00   4.170637097015789e+00   1.359328867200000e+01  2.43388650e-01  -1.29235867e+00  -6.09338900e-02
C     6.135460120875000e+00   4.829424018385567e+00   2.088443200000000e-02  3.79266070e-01   2.02962918e+00  -3.99099340e-01
C     6.210136790549999e+00   5.136297162476080e+00   3.470869328000000e+00  1.23688801e+00   1.49955944e+00   4.70415700e-02
C     7.467168433575000e+00   5.792884669568998e+00   3.479188992000000e+00 -1.18573880e-01   3.21432350e+00  -2.24318300e-01
C     7.357731233625000e+00   4.105951915182117e+00   7.482719999999999e-04  1.70771434e+00   1.79296550e+00   5.38224100e-02
C     8.649301187174999e+00   4.827100553633959e+00   1.353937868000000e+01 -2.32368310e+00   1.46327223e+00  -1.44022170e-01
C     8.701414750500000e+00   5.120583419220470e+00   3.457343312000000e+00 -2.59598360e-01  -9.75833120e-01   2.57130840e-01
C     9.907020971925000e+00   5.840208420684839e+00   3.490585792000000e+00  1.12631343e+00   7.96539030e-01  -1.11319690e-01
C     7.417982772599999e+00   1.032708354401724e-01   7.013773776000000e+00 -1.25231470e-01  -3.08071500e-02  -5.29226270e-01
C     1.246116438150000e+00   8.101281163071097e-01   6.924646992000000e+00  1.45272748e+00  -3.39936090e-01  -2.80538220e-01
C     1.148962850850000e+00   5.981379590097912e-01   1.006847834400000e+01 -2.13462250e-01  -9.28051490e-01  -3.44886400e-02
C     2.381194104225000e+00   1.309870993513282e+00   1.008437429600000e+01 -4.67124000e-03  -5.17945620e-01  -2.67271900e-02
C     2.512368426000000e+00   7.050204116275320e-02   6.851590647999999e+00 -1.13097356e+00   1.75040480e+00   6.63523400e-02
C     3.704702766975000e+00   8.322853755234019e-01   6.810615344000000e+00  9.37424480e-01   2.74767900e-02   2.86577210e-01
C     3.612788943900000e+00   5.922227302799808e-01   1.014120121600000e+01  1.11152983e+00  -1.58021040e-01  -8.70082000e-03
C     4.888184923200000e+00   1.303628955504876e+00   1.012090430400000e+01 -3.42794526e+00  -4.80788620e-01  -3.04356350e-01
C     4.939178513775000e+00   7.963124669960460e-02   6.897167648000000e+00 -4.20372230e-01   1.37763147e+00  -1.45106390e-01
C     6.170041174500000e+00   7.662084844141728e-01   6.960887048000000e+00  5.01012640e-01   2.24826992e+00  -1.54287350e-01
C     6.049653865274999e+00   5.806756612306651e-01   1.010457124800000e+01  1.72990261e+00  -6.94649990e-01   4.48709200e-02
C     7.290896443799999e+00   1.254112258412614e+00   1.004557798400000e+01  7.76570450e-01   1.43158008e+00   3.95000230e-01
C     8.677398489674999e+00   2.231045482813547e+00   6.876844352000000e+00 -6.23369670e-01   2.61353110e-01   2.93451720e-01
C     2.501566142775000e+00   2.980886349244604e+00   6.847257143999999e+00 -1.76393000e-03   1.54165660e-01  -8.54685400e-02
C     2.373991522125000e+00   2.722867894111365e+00   1.003355041600000e+01  3.41850320e-01   3.54434430e-01   1.72595980e-01
C     3.623912539875000e+00   3.424238775354798e+00   1.001688184800000e+01 -8.97300720e-01  -4.09033500e-02   2.24561680e-01
C     3.738363882600000e+00   2.300388417346220e+00   6.795768904000000e+00 -1.29051623e+00  -2.99815979e+00   3.06170840e-01
C     4.965645921299999e+00   2.932591392424293e+00   6.842670544000000e+00  8.41234170e-01   2.10571060e+00   1.45846960e-01
C     4.840649530425000e+00   2.694262764039046e+00   1.002170291200000e+01  8.82228030e-01   1.48508579e+00   5.23717360e-01
C     6.066606163274999e+00   3.413466685549120e+00   1.006288806400000e+01  7.74410570e-01   1.22259062e+00   1.78386520e-01
C     6.187991686575000e+00   2.230287987193867e+00   6.920597863999999e+00  8.10890200e-02  -1.24016628e+00  -2.14377140e-01
C     7.421283087150000e+00   2.944180793618064e+00   6.927415000000000e+00  7.86259620e-01  -1.49088655e+00  -3.28004730e-01
C     7.310240987324999e+00   2.683121404725161e+00   1.006971417600000e+01 -7.32837070e-01   9.61604040e-01  -1.40375550e-01
C     8.534920466699999e+00   3.432721535103261e+00   1.005384392800000e+01  3.61992030e-01  -1.23056939e+00   3.96558060e-01
C     9.913076626500001e+00   4.419239820115521e+00   6.918011551999999e+00 -1.28672324e+00  -1.83091969e+00  -1.02265200e-02
C     3.719993038724999e+00   5.094593467845281e+00   6.979030672000000e+00  2.16479396e+00   4.84893100e-02  -6.02595500e-01
C     3.614135092725000e+00   4.840451638079858e+00   1.004980948800000e+01 -2.27915030e-01   1.01905821e+00   9.69436600e-02
C     4.852844587950000e+00   5.572740034781120e+00   1.005567285600000e+01 -2.34476970e-01   3.07178030e-01   4.16135460e-01
C     4.979516685824999e+00   4.383830998620474e+00   6.874693376000000e+00 -4.82949470e-01  -7.10603530e-01   2.16467190e-01
C     6.223504584150000e+00   5.066077933340424e+00   6.858919551999999e+00 -3.42058100e-02  -4.96849700e-01   2.27531830e-01
C     6.091972307400000e+00   4.902889629873036e+00   1.011447164000000e+01 -1.42407980e-01  -2.89784888e+00  -2.94225960e-01
C     7.341093223125000e+00   5.560553564627061e+00   1.016694778400000e+01 -8.69822530e-01   9.81622550e-01  -1.74721230e-01
C     7.465393078949999e+00   4.328535035192768e+00   6.890610272000000e+00 -1.18894212e+00   1.87711814e+00  -1.21864760e-01
C     8.667850509374999e+00   5.087720418309930e+00   6.918076967999999e+00 -3.06710480e-01  -8.15990960e-01  -1.50696200e-01
C     8.567600450699999e+00   4.834399294189265e+00   1.013898618400000e+01 -1.56511175e+00   5.41389390e-01  -1.64553000e-01
C     9.740324213025000e+00   5.575771105983679e+00   1.011520209600000e+01  2.33010479e+00  -1.30019462e+00  -1.24747990e-01
