72
Lattice="7.395 0 0 3.6975 6.40425786098592 0 0 0 13.6 " PBC="1 1 1" Properties=species:S:1:pos:R:3:force:R:3 Energy="-559.72986299"
C     1.094306213580000e+01   6.246486149745443e+00   1.357627765600000e+01  3.35316754e+00   2.83362406e+00  -2.57252868e+00
C     1.302703310925000e+00   4.114519851560118e-01   1.350764348800000e+01 -5.63137354e+00   5.04039545e+00   3.35802760e-01
C     1.274272419975000e+00   9.399109782232170e-01   3.822392744000000e+00  2.65992183e+00  -1.93873200e-01   2.26449660e-01
C     2.627739521850000e+00   1.497436400056397e+00   3.972072848000000e+00 -7.48402700e-01   3.51289317e+00  -6.51201690e-01
C     6.237763179450000e+00   6.181248920884237e+00   1.333949988800000e+01 -4.97704533e+00   2.22507876e+00   5.34358250e-01
C     3.691147621050000e+00   4.855121679432025e-01   1.344819503200000e+01 -4.84116107e+00   1.91379509e+00   2.92362620e-01
C     3.954217646850000e+00   9.938729347386841e-01   3.766937111999999e+00 -2.21779910e+00  -1.53260007e+00  -1.20786290e-01
C     5.196181274850000e+00   1.694605183388317e+00   3.672252960000000e+00 -5.09779387e+00   2.09332786e+00  -1.48397657e+00
C     8.498586798074999e+00   6.317913542126386e+00   1.329649981600000e+01  7.36846026e+00  -6.23373268e+00  -9.84530150e-01
C     5.956939866224999e+00   5.502892508771658e-01   1.318752356000000e+01  7.98410928e+00   3.25668989e+00   1.36779943e+00
C     6.299693124599999e+00   9.159733353218448e-01   3.492484624000000e+00  1.18708996e+00   1.80263088e+00   5.48750220e-01
C     7.469685026024999e+00   1.617578036019746e+00   3.816350264000000e+00  1.84717806e+00   4.27241957e+00  -2.04756800e-02
C     1.229492589075000e+00   1.938762583022265e+00   1.356501753600000e+01 -1.09573292e+00   4.77543130e-01  -7.97399380e-01
C     2.431287871200000e+00   2.618663510002941e+00   2.350547840000000e-01  2.15648169e+00   1.12376915e+00  -1.27160635e+00
C     2.583398547225000e+00   2.909787943589928e+00   3.972102632000000e+00  3.27454781e+00   1.55811711e+00  -1.00081181e+00
C     3.727820794125000e+00   3.704595153818559e+00   3.608444480000000e+00  2.68182741e+00   2.06730767e+00  -9.18846380e-01
C     3.702028143375000e+00   1.791194520645730e+00   3.453529600000000e-02 -6.82342340e-01   9.48711193e+00  -8.17695640e-01
C     4.877529689550000e+00   2.684610330635033e+00   1.312152983200000e+01 -1.12678865e+00   9.28235900e-02   2.25782050e+00
C     5.021655799200000e+00   3.133303395459838e+00   3.413688672000000e+00  2.68468117e+00  -6.39839060e-01   3.12594560e+00
C     6.323509387650001e+00   3.950945627514086e+00   3.601904920000000e+00  1.03894300e-02  -6.20004030e+00   6.18923570e-01
C     6.103734905324999e+00   1.972998977030882e+00   1.297401960800000e+01  9.29596320e-01   1.95789646e+00   1.38460238e+00
C     7.426527473250000e+00   2.815899025701762e+00   1.313161817600000e+01 -1.80608420e-01  -4.67463498e+00   9.78268880e-01
C     7.625621468324999e+00   3.220738870787638e+00   4.022126832000000e+00 -5.31401418e+00  -4.32467865e+00  -2.59265562e+00
C     8.894947298849999e+00   3.730681169061647e+00   4.037147080000000e+00 -4.45144314e+00   3.82771881e+00  -1.80681245e+00
C     2.522454096750000e+00   4.126664373825194e+00   2.253907600000000e-01 -3.59982316e+00  -1.31463930e+00  -2.60965440e+00
C     3.681258028725000e+00   4.897480273471587e+00   3.019132000000000e-02  4.78246880e-01  -3.55798001e+00  -1.63886570e-01
C     3.751371096000000e+00   5.262721055187196e+00   3.410993968000000e+00 -1.70504260e-01  -3.10068368e+00   1.15809881e+00
C     4.934626743375000e+00   5.992716727574577e+00   3.630187480000000e+00  2.14967819e+00  -3.93033240e+00  -1.23095484e+00
C     4.855455614549999e+00   4.191068024483340e+00   1.321075644000000e+01  2.02538145e+00  -1.04779033e+00  -7.56958300e-01
C     6.118777888275000e+00   4.961664258085134e+00   1.284457603200000e+01  1.32032550e+00  -6.94177698e+00   2.53147522e+00
C     6.253452189599999e+00   5.254913368259756e+00   3.631288128000000e+00 -5.77390900e-02   5.95761307e+00   3.87641050e-01
C     7.547860196249999e+00   6.001614995572997e+00   3.666527904000000e+00  2.11062030e-01  -3.51510430e+00   2.37038770e-01
C     7.500324433725000e+00   4.230471950116613e+00   1.307937010400000e+01 -2.87300137e+00  -2.31908459e+00  -1.06614881e+00
C     8.705047100549999e+00   4.899672643064799e+00   1.330750860800000e+01 -6.02634270e-01  -2.39143095e+00   2.26221959e+00
C     8.752394364524999e+00   5.198814310896407e+00   3.612251528000000e+00  4.24536480e-01  -2.11498920e-01   5.88256870e-01
C     9.919536639674998e+00   5.943194650905713e+00   3.329178408000000e+00  1.01152926e+00  -1.41189482e+00   1.62378108e+00
C     7.418727781875000e+00   2.200484428348206e-01   6.606344023999999e+00  4.75740160e-01  -3.23793741e+00   5.93204350e-01
C     1.297298342400000e+00   8.437860777458113e-01   6.868969408000000e+00 -1.18530550e+00  -2.23917436e+00   3.27662190e-01
C     1.068753242175000e+00   5.059758852109962e-01   9.898840104000000e+00  2.57377189e+00  -1.79449462e+00   1.23311648e+00
C     2.258023945575000e+00   1.132623935106464e+00   1.019319360800000e+01  3.64249483e+00   3.04208127e+00  -1.35341976e+00
C     2.485916954700000e+00   1.974317421596520e-01   7.188313592000000e+00 -1.85043700e+00  -5.34721044e+00  -2.00607307e+00
C     3.584766663675000e+00   9.529596536129670e-01   7.368006312000000e+00  4.27700677e+00  -6.74293700e-01  -2.21452562e+00
C     3.573665437575000e+00   4.263666051158514e-01   9.844506744000000e+00 -9.97577130e-01   4.68617361e+00   2.19690446e+00
C     4.847232781275000e+00   1.287495797402014e+00   9.913511511999999e+00 -1.86779377e+00  -3.89122856e+00  -2.84819230e-01
C     4.709363839950000e+00   2.137547865080628e-01   6.814680112000000e+00  4.60159814e+00  -1.04467342e+00   7.84591060e-01
C     6.106044807525000e+00   8.601312167838392e-01   6.586712832000000e+00 -1.48446195e+00  -1.34242641e+00   2.29573199e+00
C     5.989499126849999e+00   4.554230432395645e-01   9.757035624000000e+00  1.52309552e+00  -6.05856850e-01   1.43276525e+00
C     7.265513217225000e+00   1.162047145077819e+00   9.933195064000000e+00 -4.08361499e+00   1.32024807e+00  -6.45403940e-01
C     1.365296735475000e+00   2.154600162271557e+00   7.017562599999999e+00 -2.21044507e+00   7.87420814e+00   6.80792410e-01
C     2.573343565725000e+00   3.087016045393480e+00   7.228643304000000e+00 -4.80547884e+00   6.95201160e-01  -1.05352166e+00
C     2.277291987825000e+00   2.651653699474580e+00   1.034983215200000e+01  1.62515967e+00  -2.64570154e+00  -1.13011828e+00
C     3.551271417900000e+00   3.359831218099356e+00   1.031963920000000e+01  4.28006440e-01  -1.62819605e+00  -9.74251600e-01
C     3.684116565975000e+00   2.364580279196936e+00   7.467831400000000e+00  3.45381240e+00   4.60036230e-01  -2.69277959e+00
C     4.992811158000000e+00   2.982603138649135e+00   7.131107639999999e+00 -2.09742340e+00   3.48414010e-01   1.51682760e-01
C     4.810745333624999e+00   2.717470257501800e+00   1.004301628800000e+01 -4.06436053e+00  -4.44633213e+00   1.45363731e+00
C     5.953527295574999e+00   3.350846492619826e+00   9.971236304000000e+00  5.66792617e+00   1.81609046e+00  -1.12443786e+00
C     6.112208133299999e+00   2.216153085628482e+00   6.922873824000000e+00  3.49330400e+00   2.19161410e-01  -1.99589600e-01
C     7.438226511149999e+00   2.844571656651925e+00   7.021047056000000e+00  1.08619487e+00   2.87265180e-01  -6.08789330e-01
C     7.187856584399999e+00   2.613365139390206e+00   9.964481592000000e+00  1.60499791e+00  -1.17745338e+00   3.09190210e-01
C     8.482889542500001e+00   3.312498885277982e+00   1.004456315200000e+01 -2.38367707e+00  -1.88705999e+00   1.88425190e-01
C     9.896110684724999e+00   4.589266013742611e+00   6.951962456000000e+00  1.80806096e+00  -3.57767005e+00  -4.88001150e-01
C     3.863180168250000e+00   5.141994390268336e+00   6.749786080000000e+00 -3.88249250e+00   1.96025646e+00   4.24485920e-01
C     3.644835915900000e+00   4.713594113069042e+00   1.013320156000000e+01 -1.60406354e+00   2.22620995e+00  -1.32750342e+00
C     4.965847730849999e+00   5.496142677157533e+00   9.907371248000000e+00 -8.44853694e+00  -1.67647610e-01   5.05798590e-01
C     5.109737533275000e+00   4.389806939714797e+00   6.896274127999999e+00 -4.95587546e+00  -2.97882070e-01   5.34624960e-01
C     6.264467892524999e+00   5.062393243580673e+00   6.996216992000000e+00  2.49171887e+00   2.14272629e+00   4.45750140e-01
C     6.057831699975000e+00   4.773766278431350e+00   9.762573408000000e+00  5.30720040e-01  -1.59956842e+00   1.31520276e+00
C     7.214725984125000e+00   5.486431324581208e+00   9.635908447999999e+00  5.09589480e+00  -2.45987072e+00   1.02577181e+00
C     7.487011141275000e+00   4.244403772665256e+00   7.077172080000000e+00 -1.89198557e+00   3.54124744e+00  -9.87506960e-01
C     8.558452909650001e+00   5.156050199249149e+00   6.852625336000000e+00  2.09282255e+00   2.89365920e-01   7.37459690e-01
C     8.496656887950000e+00   4.644243685554674e+00   9.735653839999999e+00 -1.73922301e+00   2.47084784e+00   7.47555070e-01
C     9.702145935599999e+00   5.252241255710249e+00   9.852571136000000e+00  2.91353423e+00   6.72567512e+00   1.74701450e-01
