72
Lattice="7.395 0 0 3.6975 6.40425786098592 0 0 0 13.6 " PBC="1 1 1" Properties=species:S:1:pos:R:3:force:R:3 Energy="-565.05819527"
C     3.618530458875000e+00   6.148506704276937e+00   1.351718443200000e+01  9.09456380e-01   2.50154001e+00   1.82443489e+00
C     1.144195627125000e+00   5.172937458715027e-01   1.354517024000000e+01  1.46600724e+00  -1.24490053e+00   2.45308060e-01
C     1.450374028950000e+00   9.842916526394953e-01   3.416344752000000e+00 -2.39361939e+00   2.96778867e+00   5.16405220e-01
C     2.662788715950000e+00   1.796959697613881e+00   3.270820672000000e+00  1.92036458e+00  -7.80616773e+00   1.79544024e+00
C     6.097568843399999e+00   6.188257228345592e+00   1.277962080000000e-01  7.95431940e-01  -5.40293460e-01  -6.62485960e-01
C     3.674593950524999e+00   4.829477109683226e-01   2.751633600000000e-02 -2.28431740e-01  -4.28159130e-01   1.16874437e+00
C     3.971640451725000e+00   1.115834020360059e+00   3.549031384000000e+00 -3.20939240e+00  -3.14181192e+00  -1.10085085e+00
C     5.154839749199999e+00   1.846914574028925e+00   3.626823656000000e+00 -3.00878440e-01  -2.94233980e+00   6.16134770e-01
C     8.639408119200001e+00   6.261179438553640e+00   1.064077600000000e-01  7.12935850e-01  -2.47555571e+00   4.78304640e-01
C     6.177783258824999e+00   6.675640208094858e-01   1.951613600000000e-01 -2.39343715e+00  -7.12164980e+00  -2.01852692e+00
C     6.310900395000000e+00   1.106853905946188e+00   3.747472520000000e+00  3.47698653e+00  -2.07359864e+00  -1.07925698e+00
C     7.602027018299999e+00   1.800289783615924e+00   3.480995072000000e+00 -1.72026623e+00  -2.04048142e+00   6.13302030e-01
C     8.543866789799999e+00   2.042779194290234e+00   1.349046396800000e+01  4.65731869e+00  -7.76358000e+00  -2.35746780e-01
C     2.429812642650000e+00   2.587672153451986e+00   1.329176715200000e+01  7.39584880e-01   6.21288620e-01   1.62778781e+00
C     2.665101982875000e+00   3.106611281252880e+00   3.399710592000000e+00  3.58252160e-01   3.39607794e+00  -3.28946600e-02
C     3.886015188750000e+00   3.781181047820577e+00   3.587406640000000e+00  1.35047335e+00   4.17215724e+00   1.89418605e+00
C     3.679805539800000e+00   1.890469419394156e+00   6.939264000000000e-03  3.76762180e-01   1.70700472e+00  -1.51803523e+00
C     4.945693139025000e+00   2.682527089595754e+00   1.689008480000000e-01 -3.13754108e+00   1.80053830e-01   3.32111240e-01
C     5.190446748149999e+00   3.184635827740567e+00   3.743748432000000e+00 -1.48702395e+00   5.26431010e+00  -2.16247913e+00
C     6.415790002724999e+00   4.105083241645986e+00   3.581559728000000e+00 -3.16163145e+00  -1.12753714e+01   2.93505650e-01
C     6.144074075700000e+00   2.025880791415681e+00   3.068448320000000e-01  8.48390790e-01  -2.19334107e+00   3.01776680e-01
C     7.446319710075000e+00   2.572693554956125e+00   3.717315200000000e-01 -4.29492283e+00   1.90571327e+00  -1.13709519e+00
C     7.526809626225000e+00   3.236892586558231e+00   3.350352520000000e+00  3.87277206e+00   3.73694400e-02   1.33964016e+00
C     8.864326822350000e+00   3.799315728632424e+00   3.416123208000000e+00 -2.43639763e+00   3.29058058e+00  -4.11670340e-01
C     2.461406486025000e+00   4.005761143517133e+00   1.331135400800000e+01 -2.70911600e-01  -1.56762722e+00   1.61958685e+00
C     3.652866885900000e+00   4.658137594896786e+00   1.351597634400000e+01  9.34667490e-01   6.07205245e+00  -7.24168300e-02
C     3.839732545950000e+00   5.301357430515948e+00   3.847393760000000e+00 -1.86993540e+00  -1.46198410e+00  -1.88535063e+00
C     5.040664979475000e+00   5.983971457296433e+00   3.704791096000000e+00  3.28886170e-01   3.39644724e+00  -7.19498390e-01
C     4.890562119900000e+00   4.152110027324860e+00   2.292133120000000e-01 -6.77667060e-01  -5.27365657e+00  -9.27641200e-01
C     6.124132607775000e+00   4.711613596325837e+00   3.599910480000000e-01  1.93577202e+00   3.31814560e+00  -1.30789099e+00
C     6.270208113375000e+00   5.382307954334712e+00   3.591473584000000e+00  3.62890283e+00   2.05363040e+00   1.26708620e-01
C     7.615794548624999e+00   5.865055916500381e+00   3.578187744000000e+00 -1.96974289e+00   8.57030482e+00  -6.59805110e-01
C     7.346471791499999e+00   3.884266415953124e+00   2.642193040000000e-01  2.86402745e+00   9.03423695e+00   5.13616090e-01
C     8.722527142724999e+00   4.672324114780523e+00   9.872389599999999e-02 -5.27553187e+00   3.33743219e+00  -8.32991140e-01
C     8.834011315649999e+00   5.269039367906715e+00   3.535659864000000e+00 -2.90369290e-01  -2.55024209e+00   6.94947000e-01
C     9.952153988025000e+00   6.058763070373814e+00   3.779415792000000e+00  3.96872598e+00   6.41349300e-02  -4.54953300e-01
C     7.331622261750001e+00   2.402727689438076e-01   7.058869744000001e+00  1.74223981e+00  -7.31133760e-01  -1.03973915e+00
C     1.159460127300000e+00   9.329424412031724e-01   6.812991127999999e+00  2.78426679e+00  -2.65365026e+00  -8.08018500e-02
C     1.100808644475000e+00   3.971994373737390e-01   9.973144520000000e+00 -2.72574167e+00  -4.87712930e-01  -4.76546300e-01
C     2.268738450150000e+00   1.127061773112475e+00   9.810723119999999e+00  2.01343846e+00  -1.10114865e+00   2.91361050e-01
C     2.458584443099999e+00   1.145524480011912e-01   6.785820096000000e+00 -6.76718760e-01   5.31392010e+00  -2.77496970e-01
C     3.594783967650000e+00   1.001813830229612e+00   6.743938080000000e+00  1.96055183e+00  -1.57502343e+00   3.68279600e-02
C     3.507988335000000e+00   3.912134415945757e-01   9.904916176000000e+00  3.41411746e+00   1.10299014e+00   7.69535410e-01
C     4.862171420774999e+00   1.159568184945370e+00   9.998335120000000e+00 -7.17096698e+00  -3.56563762e+00  -1.17462912e+00
C     4.819697720625000e+00   1.352969279335674e-01   6.897999424000000e+00 -5.36930300e-02   4.92361236e+00  -4.64541290e-01
C     6.085094735549999e+00   7.628808320301168e-01   6.921880480000000e+00 -1.00783221e+00   6.80317026e+00  -4.13121400e-02
C     5.937249199725000e+00   4.035616833021774e-01   1.013646991200000e+01  2.68824750e+00  -3.60630395e+00  -3.92188400e-01
C     7.189312253174999e+00   9.794485607180274e-01   1.001295838400000e+01  2.43053447e+00   3.27229052e+00   1.00411950e+00
C     8.665584311625000e+00   2.296164745244971e+00   6.619063968000000e+00 -1.50351592e+00   2.07560746e+00   1.68013338e+00
C     2.432920391400000e+00   3.166242799166648e+00   6.644834472000000e+00  1.82243748e+00  -2.19128900e-02  -3.40862860e-01
C     2.312874694200000e+00   2.529490367389986e+00   9.660275024000001e+00 -1.08457463e+00   1.01838702e+00   1.13241701e+00
C     3.572402963175000e+00   3.218069960367062e+00   9.704165896000001e+00 -1.79766958e+00   3.05832320e-01   1.84079420e-01
C     3.705114483600000e+00   2.541555989198226e+00   6.618282648000000e+00 -3.41495872e+00  -6.82318356e+00   8.44294740e-01
C     4.963420913699999e+00   3.028604666687200e+00   6.705163800000000e+00 -6.91747160e-01   5.22128447e+00   1.99878030e-01
C     4.777633185825000e+00   2.463316259646442e+00   9.742014288000000e+00  3.68011200e-01   4.38504631e+00   1.58249516e+00
C     5.917299597300000e+00   3.174657481654058e+00   1.004366487200000e+01  4.95287520e+00   2.72871918e+00   3.67014340e-01
C     6.127893852674999e+00   2.342971416581196e+00   6.831732064000000e+00  1.51774889e+00  -4.43386437e+00  -1.12953830e-01
C     7.391623147200000e+00   2.987191789405824e+00   6.820230271999999e+00  7.96985850e-01  -2.58327186e+00  -8.50437150e-01
C     7.219724597400000e+00   2.388749115807054e+00   1.013333416000000e+01 -9.96986450e-01   4.17594950e+00  -2.29486775e+00
C     8.455068776025000e+00   3.245628890875371e+00   9.821146839999999e+00  3.58218800e-01  -4.83595205e+00   1.51142502e+00
C     9.890360221800000e+00   4.637122150814354e+00   6.809316407999999e+00 -1.63803902e+00  -5.37008630e+00   2.85957010e-01
C     3.682805691300000e+00   5.241529622098771e+00   7.021984639999999e+00  3.80095249e+00  -6.10409500e-01  -1.71122483e+00
C     3.558369508650000e+00   4.608817124265355e+00   9.924786456000000e+00 -1.00450335e+00   2.48288679e+00   8.77331000e-03
C     4.797454300125000e+00   5.405755223211743e+00   9.981870279999999e+00 -3.17616680e-01  -7.70545980e-01   7.22866400e-01
C     4.931438684925000e+00   4.512428112193803e+00   6.745163576000000e+00  2.00824088e+00  -7.29351550e-01   1.23922237e+00
C     6.279464434875000e+00   5.142470162584756e+00   6.774422479999999e+00 -3.11894578e+00  -2.22866351e+00   6.81552430e-01
C     6.042129304874999e+00   4.824997139182421e+00   1.012325424800000e+01 -1.46373420e-01  -7.02404689e+00  -1.23525125e+00
C     7.334456987099999e+00   5.385731734629246e+00   1.004879669600000e+01 -3.34533062e+00   9.23613470e-01   3.12717860e-01
C     7.486498630800000e+00   4.318363280518888e+00   6.847556616000000e+00 -1.65725448e+00   6.37731464e+00  -3.14617180e-01
C     8.650254439650000e+00   5.200209990811836e+00   6.910656400000000e+00 -2.80228809e+00  -2.95610026e+00  -5.35213800e-01
C     8.538793819799999e+00   4.591452875674064e+00   1.002011769600000e+01 -5.02532500e+00   1.59361970e+00  -1.94096640e-01
C     9.590155685850000e+00   5.374349319049512e+00   1.004744771200000e+01  7.52885349e+00  -5.30756930e-01  -1.09339330e-01
