72
Lattice="7.395 0 0 3.6975 6.40425786098592 0 0 0 13.6 " PBC="1 1 1" Properties=species:S:1:pos:R:3:force:R:3 Energy="-575.21555248"
C     3.650072167500000e-02   3.463518714555900e-02   1.351847466400000e+01 -4.47204000e-02  -2.22919581e+00   1.82630770e-01
C     1.331184635775000e+00   6.654275603873899e-01   1.357941422400000e+01 -2.94176165e+00   2.39999864e+00  -7.79910290e-01
C     1.216173565500000e+00   7.983052158717636e-01   3.456371455999999e+00  2.93699450e+00  -3.26659419e+00  -9.46471250e-01
C     2.466333441750000e+00   1.476278653364315e+00   3.441429408000000e+00 -5.92970000e-04  -2.03875340e-01  -5.87842430e-01
C     6.227680873424999e+00   6.381878629206280e+00   1.355441579200000e+01 -8.76152650e-01   1.63380620e+00   1.78888180e-01
C     3.749397407475000e+00   7.477649262457374e-01   1.352070329600000e+01 -3.02113909e+00  -2.28390837e+00  -5.89854670e-01
C     3.675501169125000e+00   7.279513051933123e-01   3.402777528000000e+00 -1.44532351e+00  -1.61235430e-01   1.90365070e-01
C     4.875423889349999e+00   1.372686452264728e+00   3.444671512000000e+00  2.39105315e+00   1.52135577e+00  -2.95480310e-01
C     8.569759975575000e+00   6.374295091303940e+00   1.356610240800000e+01  2.13491990e+00   8.96491260e-01  -2.00726230e-01
C     6.110260475174999e+00   5.460450211081866e-01   1.359983435200000e+01  2.89385771e+00   6.42645146e+00  -4.12332740e-01
C     6.163402756949999e+00   6.562619786658936e-01   3.446744560000000e+00  1.81206180e-01   1.83933949e+00  -4.07021580e-01
C     7.422602244224999e+00   1.439943648097555e+00   3.380499232000000e+00 -2.60628651e+00  -2.31506584e+00   4.70750780e-01
C     1.290407940225000e+00   2.089869894462550e+00   1.351870368800000e+01 -1.79475125e+00   2.59263956e+00   9.61373000e-01
C     2.501017137975000e+00   2.838297469269062e+00   1.355916681600000e+01 -1.90567247e+00   1.63171513e+00  -1.72641621e+00
C     2.505102172950000e+00   2.871335562589494e+00   3.365401736000000e+00 -3.12399689e+00   2.91552820e+00   5.56276750e-01
C     3.672017902275000e+00   3.655745908480466e+00   3.501361888000000e+00  2.21822560e+00  -4.02134871e+00  -1.22328323e+00
C     3.718219310999999e+00   2.108313964971614e+00   1.336444990400000e+01 -6.98271370e-01   1.88320893e+00   2.98439638e+00
C     4.916009165325000e+00   2.751310996459826e+00   9.398579200000000e-02  1.99799650e-01   3.80612727e+00  -1.99450933e+00
C     4.835625811125000e+00   2.804260503850206e+00   3.436190144000000e+00  3.93630182e+00   1.29466158e+00   1.09507762e+00
C     6.207515078175000e+00   3.433734368483820e+00   3.495635200000000e+00 -3.60641522e+00   3.91061275e+00  -9.75704070e-01
C     6.096276419250000e+00   2.049270165801659e+00   2.616993600000000e-02  3.21005665e+00   4.53125170e-01   4.67137680e-01
C     7.352726815274999e+00   2.903688016063435e+00   1.358631282400000e+01  1.21681498e+00  -3.16638072e+00   2.33013660e-01
C     7.440135086699999e+00   2.804049867809190e+00   3.374788184000000e+00 -9.83772910e-01   2.56541563e+00  -2.09937500e-02
C     8.585535987900000e+00   3.632076603983428e+00   3.309394080000000e+00  2.47053739e+00  -1.73761494e+00   1.74167432e+00
C     9.769107771525000e+00   4.341756689587317e+00   1.350566768000000e+01  4.46721043e+00  -2.64592747e+00  -1.44575370e-01
C     3.719795333400000e+00   5.040306815456312e+00   1.345072721600000e+01 -1.22052254e+00  -2.80218218e+00   1.32934600e+00
C     3.761915848349999e+00   5.035217351734970e+00   3.438786927999999e+00 -7.68131470e-01  -4.78566160e-01   4.24529400e-02
C     4.976264512725000e+00   5.740834960407948e+00   3.381252128000000e+00  4.27149110e-01  -5.80112310e-01   9.63593520e-01
C     4.942980172350000e+00   4.257557029585860e+00   3.984664000000000e-02 -1.43994650e+00  -5.76096350e-01  -4.46935260e-01
C     6.143180094149999e+00   5.001391598740337e+00   3.939267200000000e-02  1.55727300e-01  -9.22774390e-01   8.83135000e-02
C     6.204482203800000e+00   4.942398265122319e+00   3.437823368000000e+00 -6.10164240e-01   2.52660630e-01  -3.93321210e-01
C     7.411003556475000e+00   5.748865515508917e+00   3.377387552000000e+00 -1.67835581e+00  -2.15282261e+00   1.31258880e+00
C     7.374384551775000e+00   4.364303391724076e+00   2.801368800000000e-02 -1.39571560e+00  -5.56976370e+00  -4.32716280e-01
C     8.560777306049999e+00   5.016645516281599e+00   1.351175939200000e+01  1.11062444e+00  -1.52215692e+00   6.74569150e-01
C     8.607677098575000e+00   5.063435216334495e+00   3.548394360000000e+00  1.16024964e+00  -3.42123416e+00  -2.35913698e+00
C     9.897499613625000e+00   5.633864641372368e+00   3.454388032000000e+00 -8.53908870e-01   3.98792796e+00   5.68185010e-01
C     3.719068146075000e+00   6.403088122301872e+00   6.888475344000001e+00 -2.65387670e-01   9.17475590e-01   6.81994170e-01
C     1.257990774525000e+00   7.653847047256410e-01   6.862011512000000e+00 -1.53734164e+00  -1.83969872e+00  -3.32545350e-01
C     1.286786017125000e+00   6.585773100100194e-01   1.019735099200000e+01 -4.70567739e+00   9.95506270e-01   1.93515940e-01
C     2.446671430875000e+00   1.352146396243243e+00   1.014272944800000e+01  7.14424450e-01   2.61694113e+00   8.88748200e-01
C     2.464404086250000e+00   6.579478355049601e-02   6.707051480000000e+00  6.29739410e-01  -1.80081372e+00   9.36331920e-01
C     3.758590871475000e+00   6.400798920329814e-01   6.664893384000000e+00 -6.20385000e-03   1.76044213e+00   4.29158710e-01
C     3.621861018975000e+00   6.677524340757270e-01   1.033625187200000e+01  3.82893807e+00   1.12234945e+00  -1.86731823e+00
C     4.930399317674999e+00   1.398661161506209e+00   1.017614845600000e+01 -1.12793818e+00   5.35248740e-01   1.98993532e+00
C     5.054970311175000e+00   7.816460760708601e-03   6.813435576000000e+00 -3.11628243e+00  -1.33604050e-01   3.93191230e-01
C     6.221431211025000e+00   7.822668407852299e-01   6.981370824000000e+00  3.99952540e-01  -8.16101850e-01  -2.10155137e+00
C     6.201218050800000e+00   7.334215020444312e-01   1.028053104000000e+01 -1.70750300e+00  -3.79376330e-01  -1.22897175e+00
C     7.368870987674999e+00   1.528989089808781e+00   1.020650093600000e+01  2.82269337e+00  -5.37476873e+00  -3.35455060e-01
C     8.601973926674999e+00   2.154191826790404e+00   6.895234000000000e+00  6.67452210e-01  -7.42860290e-01  -1.39470127e+00
C     2.452838712975000e+00   2.736478991426380e+00   6.697388680000000e+00  1.17175455e+00   2.86321756e+00   1.46873568e+00
C     2.470182243450000e+00   2.796950235630752e+00   1.015168205600000e+01  9.52126700e-02   1.73701340e+00  -7.20606000e-03
C     3.687972688725000e+00   3.595628499522860e+00   1.012601967200000e+01 -2.93271640e-01  -3.66480925e+00   4.83247250e-01
C     3.694599533100000e+00   2.050770683418257e+00   6.664791520000000e+00  7.61606340e-01   1.38456562e+00   3.90741520e-01
C     4.893246135149999e+00   2.860811061392684e+00   6.771987672000000e+00  1.65942006e+00  -1.21185886e+00  -4.08953950e-01
C     4.921171910625000e+00   2.873185176302041e+00   1.022116323200000e+01  3.36365440e-01  -2.44931812e+00  -1.21310499e+00
C     6.172292693175000e+00   3.522296672982087e+00   1.016193428000000e+01 -9.55757430e-01   1.32537611e+00   1.14616840e-01
C     6.206291057774999e+00   2.222531790499621e+00   6.768609160000000e+00 -2.58103234e+00  -2.93896027e+00   1.31465058e+00
C     7.405569118874999e+00   2.861498302303641e+00   6.793620376000000e+00 -7.79490010e-01   3.88808729e+00   1.99745500e-01
C     7.421246186099999e+00   2.888269316967434e+00   1.010720828800000e+01 -4.58945370e-01  -1.80560090e-01   1.19663086e+00
C     8.664179779274999e+00   3.552088640121021e+00   1.023916065600000e+01 -4.42620380e-01   1.01710186e+00  -8.32092550e-01
C     2.480656225650000e+00   4.173655872043257e+00   6.863385112000000e+00 -2.30877804e+00   1.97628514e+00  -9.51022300e-01
C     3.637867681350000e+00   4.965137735420663e+00   6.845507640000000e+00  2.41982729e+00  -5.50790690e-01   3.50240590e-01
C     3.679493840550000e+00   4.963319310443895e+00   1.010590309600000e+01  6.06520770e-01   6.47079190e-01   9.73564550e-01
C     4.932105824850000e+00   5.631373449107406e+00   1.024508304800000e+01 -1.47623411e+00   1.90513659e+00  -9.69007850e-01
C     4.923648902849999e+00   4.244021758683908e+00   6.851333200000000e+00 -2.28543937e+00   2.36384611e+00  -4.22511970e-01
C     6.102066038700000e+00   5.051551155236586e+00   6.831176911999999e+00  2.63431210e-01  -1.38724093e+00  -9.15482720e-01
C     6.110317712474999e+00   4.931996021208056e+00   1.021806188800000e+01  1.94745520e+00   2.62933840e-01   3.92302520e-01
C     7.312040153849999e+00   5.695202381665196e+00   1.030650064800000e+01  1.99983329e+00  -1.99190790e+00   2.45553520e-01
C     7.304482981500000e+00   4.354587812337563e+00   6.748315512000000e+00  3.68198015e+00  -1.55300175e+00   8.74397180e-01
C     8.615549113049999e+00   5.009954091499157e+00   6.851195703999999e+00  1.17221271e+00  -2.17573344e+00  -4.65397230e-01
C     8.602468910999999e+00   5.003865947807126e+00   1.032400983200000e+01  1.07338568e+00  -8.98046160e-01  -1.04436536e+00
C     9.884098320674999e+00   5.655675622366170e+00   1.019753880800000e+01 -2.18249507e+00   2.76351176e+00   8.71885390e-01
