72
Lattice="7.395 0 0 3.6975 6.40425786098592 0 0 0 13.6 " PBC="1 1 1" Properties=species:S:1:pos:R:3:force:R:3 Energy="-574.09600935"
C     3.752367720150000e+00   6.261666930661943e+00   1.318777026400000e+01 -2.20486135e+00   2.44066694e+00   1.06730934e+00
C     1.216375338075000e+00   6.464444434942495e-01   1.329530995200000e+01 -2.76403390e-01  -8.60285880e-01  -6.74108620e-01
C     1.328655730650000e+00   8.955226186975069e-01   3.860503344000000e+00  5.15145710e-01   2.98662940e-01  -1.03341888e+00
C     2.596152075150000e+00   1.599618767830684e+00   3.833268120000000e+00 -2.71867296e+00   2.33683801e+00  -2.76282080e-01
C     6.079413120074999e+00   6.342866836281776e+00   1.323794460800000e+01  4.48856445e+00  -2.58014993e+00  -2.87257200e-02
C     3.704913117749999e+00   6.483815393691637e-01   1.329231496000000e+01 -2.52896100e-01  -1.89497110e+00  -1.38245130e-01
C     3.747721330725000e+00   8.569006529489406e-01   3.700878376000000e+00  1.91456912e+00   2.50149531e+00  -4.64844600e-01
C     4.963039664475000e+00   1.573376360610655e+00   3.559685216000000e+00  2.79488959e+00   1.73508267e+00   1.79548314e+00
C     8.654968567274999e+00   6.253227335611456e+00   1.327996888000000e+01 -1.99330588e+00   1.04467299e+00   2.47190810e-01
C     6.203970469800000e+00   5.916382777076772e-01   1.318852615200000e+01 -1.81146103e+00  -9.58224520e-01  -3.39400070e-01
C     6.278686222049999e+00   9.409965639730656e-01   3.671599752000000e+00 -1.16472862e+00  -3.17403767e+00  -2.17582880e-01
C     7.513597349475000e+00   1.630738017411103e+00   3.817328240000000e+00 -1.19257785e+00  -6.46365260e-01  -6.14043040e-01
C     1.216241266725000e+00   2.059981351115088e+00   1.330618288000000e+01 -1.34742230e+00  -5.77582040e-01  -5.64182480e-01
C     2.405538666075000e+00   2.738429728370536e+00   1.348562740000000e+01  2.99275227e+00   9.26430360e-01  -9.73440660e-01
C     2.576810933325000e+00   3.112022879144579e+00   3.782481096000000e+00 -4.71240280e-01  -3.53578399e+00  -4.33996170e-01
C     3.858904675050000e+00   3.752723984189981e+00   3.604074936000000e+00 -3.67750818e+00  -2.90535640e-01   1.13678223e+00
C     3.717387225600000e+00   2.074493463468426e+00   1.333096412000000e+01 -2.37887094e+00  -1.97305985e+00   4.37861700e-01
C     4.907273266950000e+00   2.742250700737548e+00   1.309208528800000e+01  4.93125280e-01  -1.19253389e+00   5.69580200e-02
C     5.005623439200000e+00   3.046031036579731e+00   3.702397904000000e+00  1.82978074e+00  -2.92259912e+00  -1.25536737e+00
C     6.256264434150000e+00   3.746676187322469e+00   3.734089032000000e+00 -3.92547700e-01  -1.95297016e+00  -2.23177740e-01
C     6.113048722949999e+00   1.999101002918620e+00   1.294471514400000e+01  2.09835900e+00   2.86730020e-01   1.38562893e+00
C     7.404996154275000e+00   2.748060835595876e+00   1.294192279200000e+01 -1.27752758e+00  -4.12642499e+00   1.41982143e+00
C     7.472339609175000e+00   3.032866892420766e+00   3.796538328000000e+00 -2.39107000e-02  -5.69047830e-01   1.77747330e-01
C     8.655678339374999e+00   3.732488642757475e+00   3.806279872000000e+00  3.25642732e+00   1.87190354e+00  -4.80327080e-01
C     2.418993535800000e+00   4.159377194888917e+00   1.346824211200000e+01  4.89392970e-01   9.30082700e-02  -4.01920670e-01
C     3.702370051200000e+00   4.893518023176183e+00   1.332409122400000e+01 -1.23230068e+00  -2.41616031e+00  -5.23989930e-01
C     3.839922782325000e+00   5.133733730182457e+00   3.639131384000000e+00 -1.61770500e+00   1.67332961e+00  -2.56437550e-01
C     4.983431007225000e+00   5.891159543452583e+00   3.648999680000000e+00  4.04838502e+00  -7.03497450e-01   8.23486220e-01
C     4.881356491125000e+00   4.130931210624419e+00   1.304740031200000e+01  7.16141730e-01   1.75781996e+00   1.45727310e+00
C     6.100470197700000e+00   4.821887936033969e+00   1.302856404000000e+01  1.42458832e+00   2.43387882e+00  -5.11449000e-03
C     6.289691978700000e+00   5.103878168762974e+00   3.682514567999999e+00 -1.82444381e+00   4.63762792e+00   1.59814850e-01
C     7.500350427150000e+00   5.904851014203742e+00   3.719127671999999e+00 -1.70808855e+00  -3.50365885e+00  -1.76464310e-01
C     7.400212698524999e+00   4.080098182371612e+00   1.294848928000000e+01 -2.33675057e+00   4.73498255e+00   2.15732183e+00
C     8.542666544325000e+00   4.785746979780367e+00   1.337685800000000e+01  2.44632956e+00   2.81978631e+00  -1.47771917e+00
C     8.678892094800000e+00   5.177485250306570e+00   3.735460864000000e+00  2.99617803e+00  -6.38853980e-01  -1.28085110e-01
C     1.000602597142500e+01   5.817115563437778e+00   3.691024768000000e+00 -2.57011665e+00   2.83891269e+00  -2.75519670e-01
C     7.381589648175000e+00   1.202077279044642e-01   6.501017600000000e+00  4.47369485e+00  -1.50738500e+00   2.58022162e+00
C     1.275754451925000e+00   8.634397844794723e-01   6.853136287999999e+00 -3.22384380e-01  -3.32380865e+00  -3.46727210e-01
C     1.084056270300000e+00   5.569070907367969e-01   1.021248126400000e+01  3.26026123e+00  -2.42576365e+00  -1.19606086e+00
C     2.390530809375000e+00   1.211709090738346e+00   1.009096512800000e+01 -2.88287026e+00   1.65507368e+00   1.49720027e+00
C     2.533342457774999e+00   1.068607421835954e-01   7.105693455999999e+00 -3.24049483e+00  -3.48393420e-01  -1.23814971e+00
C     3.746992664400000e+00   7.667063514202093e-01   7.222768103999999e+00  1.50039285e+00   2.07150459e+00  -1.06638021e+00
C     3.569100762900000e+00   5.000549566916904e-01   9.891775176000001e+00  5.56157020e-01   2.84486285e+00   9.93894210e-01
C     4.810060260825001e+00   1.220038596596219e+00   1.002673885600000e+01  2.31735350e-01   1.22278190e+00   8.46742950e-01
C     5.020130321625000e+00   8.179550160081300e-02   6.953317424000000e+00 -6.74117590e-01   1.43805183e+00  -4.86341080e-01
C     6.241530155475000e+00   8.383418821816039e-01   6.660561920000000e+00 -3.75678449e+00   5.36357100e-02   1.68716424e+00
C     6.038725127550000e+00   5.776842964268377e-01   1.004100362400000e+01  1.74805297e+00  -1.76217655e+00   8.86435500e-02
C     7.307697957749999e+00   1.272339929048588e+00   1.021957883200000e+01 -2.83043071e+00  -3.42885710e-01  -1.51921250e-01
C     8.675696012774999e+00   2.221749190189129e+00   6.930141392000000e+00 -1.42633136e+00   3.11610986e+00   3.59813470e-01
C     2.498567285400000e+00   2.947834166556880e+00   7.157206448000000e+00 -6.81444600e-01   5.95998300e-02  -1.50842381e+00
C     2.359422521700000e+00   2.672329910018169e+00   1.031359658400000e+01  5.38961490e-01  -1.44609801e+00  -1.16463060e+00
C     3.565584477375000e+00   3.412016633484459e+00   1.035775796000000e+01  1.25859701e+00  -2.82134669e+00  -5.52214000e-01
C     3.695390539275000e+00   2.248070561908571e+00   7.281669839999999e+00  3.29036707e+00  -6.53775940e-01  -1.24275552e+00
C     5.022627391275000e+00   2.992613570067522e+00   7.127650384000000e+00 -4.34641383e+00  -1.39538433e+00  -5.27305720e-01
C     4.867846269825000e+00   2.624977019529064e+00   1.032240761600000e+01 -3.20005436e+00   9.62019580e-01  -1.38583939e+00
C     6.071618974950000e+00   3.320446953537714e+00   1.021183988800000e+01 -8.70429790e-01   2.92639280e+00  -1.59384090e-01
C     6.170483617350000e+00   2.253559459192642e+00   6.864342551999999e+00  2.21764407e+00   1.24345680e+00   3.15492100e-02
C     7.406683582349999e+00   3.027890591935810e+00   6.840735128000000e+00  1.04364446e+00  -3.01583892e+00   3.29815890e-01
C     7.272725486774998e+00   2.668608844073773e+00   1.027326700800000e+01  2.56389661e+00   2.59191360e-01  -1.43944170e+00
C     8.535799473375000e+00   3.377630251756761e+00   1.018349640000000e+01 -2.57261640e-01   1.05752453e+00  -3.08705570e-01
C     9.881219188350000e+00   4.355448160338476e+00   6.812487928000000e+00  1.47748830e+00  -1.30652450e+00   1.14013570e+00
C     3.715181962650000e+00   5.030685442702921e+00   6.704739072000000e+00 -1.62357590e+00   3.54631885e+00  -7.78220900e-02
C     3.508105249950000e+00   4.787140866503596e+00   1.026292720000000e+01  3.91324976e+00   8.02269610e-01  -4.07651980e-01
C     4.770283812975000e+00   5.488899013219823e+00   1.017511676000000e+01  1.13272900e+00   9.64820790e-01   6.55313700e-02
C     4.916688137250000e+00   4.425671232028847e+00   6.965344992000000e+00  1.16195726e+00  -2.91171426e+00   2.18713160e-01
C     6.113268835125000e+00   5.084302850145519e+00   7.033211983999999e+00  4.36303017e+00   2.04353457e+00  -5.03565230e-01
C     6.048581923050000e+00   4.792463445211042e+00   1.007319795200000e+01 -7.78329370e-01   2.54236670e-01  -1.63828470e-01
C     7.245228325499999e+00   5.566789454547922e+00   9.794020551999999e+00  1.94196400e+00  -5.58597315e+00   1.75234284e+00
C     7.426603124100000e+00   4.408745290845496e+00   6.964441680000000e+00 -1.14295583e+00   1.65678580e-01   7.44641100e-02
C     8.709483324074998e+00   5.081227141265676e+00   6.887059176000000e+00 -2.51585546e+00   7.34597800e-01   1.34082600e-02
C     8.618544827550000e+00   4.805839506262595e+00   9.914183624000000e+00 -5.76058427e+00  -8.85952110e-01   5.61008180e-01
C     9.768003808949999e+00   5.511711812270664e+00   1.000775910400000e+01 -3.81443060e-01   2.36059018e+00   3.24227570e-01
