72
Lattice="7.395 0 0 3.6975 6.40425786098592 0 0 0 13.6 " PBC="1 1 1" Properties=species:S:1:pos:R:3:force:R:3 Energy="-575.86938327"
C     3.731252702700000e+00   6.223797657339663e+00   1.358672572000000e+01 -2.16047581e+00  -1.16316327e+00  -9.06260890e-01
C     1.272847070700000e+00   4.589369314421892e-01   3.228871200000000e-02 -1.31079470e+00   3.44226090e+00  -5.46684400e-02
C     1.388861309700000e+00   1.054898339375681e+00   3.670521816000000e+00  1.00939810e+00  -1.12382624e+00  -5.46465380e-01
C     2.628061500150000e+00   1.737592227251681e+00   3.792043392000000e+00 -1.26912710e-01   1.23256984e+00  -1.50598253e+00
C     6.211193425125000e+00   6.241430948803651e+00   1.353405251200000e+01 -3.15852855e+00  -1.76644668e+00   4.50649180e-01
C     3.692577814050000e+00   5.154945977108929e-01   1.354589008800000e+01  3.75210770e-01   8.41894960e-01  -5.78759620e-01
C     3.849243662175000e+00   1.050394673120793e+00   3.644344808000000e+00 -8.05350260e-01  -1.99597702e+00   6.05326750e-01
C     5.074381372725000e+00   1.675045106904570e+00   3.660827192000000e+00  1.49251401e+00   1.56919079e+00  -1.26007417e+00
C     8.552169304200000e+00   6.165957090136444e+00   1.351078372800000e+01  2.51550706e+00   2.73165836e+00  -5.19844890e-01
C     6.098580627300001e+00   4.263971534258437e-01   1.354858180000000e+01  2.21018345e+00   2.26441782e+00   6.31071130e-01
C     6.361390090275000e+00   9.668987770155714e-01   3.513645000000000e+00 -1.74969316e+00   1.65775534e+00   8.45784570e-01
C     7.551447658650000e+00   1.740931023044413e+00   3.590796984000000e+00  8.31384490e-01  -3.50102286e+00   7.44670700e-02
C     1.212043605900000e+00   1.902611123785772e+00   1.038096160000000e-01  7.43146530e-01   2.12780341e+00  -1.13165739e+00
C     2.455707936000000e+00   2.649575966097060e+00   8.997433600000000e-02 -7.86020560e-01   1.03040729e+00  -1.35788864e+00
C     2.646752954250000e+00   3.161146034591345e+00   3.674378640000000e+00 -1.45672114e+00   2.42910479e+00   4.33788380e-01
C     3.854170617899999e+00   3.954426213575838e+00   3.697995176000000e+00  9.74342540e-01  -3.85769364e+00  -1.73253769e+00
C     3.703475788575000e+00   1.923816069858283e+00   1.351469549600000e+01 -2.32646441e+00   7.01347980e-01   2.13043369e+00
C     4.892877346500001e+00   2.584382158104147e+00   9.480179200000000e-02  1.82426830e+00   2.86041440e+00  -1.37196541e+00
C     5.034802815075000e+00   3.110291552074707e+00   3.598338184000000e+00  2.71073012e+00   1.11513230e+00   1.55712695e+00
C     6.356547918225000e+00   3.742050840168241e+00   3.669103200000000e+00 -2.45255398e+00   4.10355426e+00  -7.82497710e-01
C     6.093581200575000e+00   1.836044306950253e+00   4.492107200000000e-02  2.19385907e+00   3.06674530e+00  -5.73817580e-01
C     7.394715588300000e+00   2.696578863894115e+00   1.354112451200000e+01 -1.92137064e+00  -2.48350709e+00   2.04686078e+00
C     7.586658692324999e+00   3.084834883251522e+00   3.668224912000000e+00 -4.99798230e-01   4.03033789e+00  -5.54532810e-01
C     8.769977566950001e+00   3.908257150152155e+00   3.592046824000000e+00  1.40876128e+00  -1.24985019e+00   1.34908116e+00
C     9.791786054999999e+00   4.151943900875971e+00   1.356767252800000e+01  2.61534661e+00  -3.20732915e+00  -6.79386470e-01
C     3.681034034175000e+00   4.832508437056100e+00   1.349111527200000e+01  2.50489630e-01  -2.20417031e+00   1.25279152e+00
C     3.915831422025000e+00   5.335152379030274e+00   3.468896240000000e+00 -7.99246860e-01  -1.40242562e+00   1.22033210e+00
C     5.127755302874999e+00   6.036767390583329e+00   3.534794360000000e+00  7.37657490e-01  -3.88743690e-01   4.42943380e-01
C     4.924098814650000e+00   4.087300602888704e+00   1.997064800000000e-02 -1.56072615e+00  -1.16565896e+00  -2.66821790e-01
C     6.120434294324999e+00   4.825040816221025e+00   1.355965818400000e+01  5.34564550e-01  -4.64048250e-01   3.77549570e-01
C     6.358381619399999e+00   5.284279324165842e+00   3.626120128000000e+00 -6.22188540e-01  -1.71470518e+00  -3.09266480e-01
C     7.559392698750000e+00   6.031776872645925e+00   3.600937552000000e+00 -2.86780330e-01  -7.78408700e-02   7.26800120e-01
C     7.334798377275000e+00   4.155488465473746e+00   1.359912320800000e+01  1.97079471e+00  -3.65626147e+00  -1.69877460e+00
C     8.595785901599999e+00   4.828129909999797e+00   1.338866606400000e+01 -2.02277134e+00  -2.91559130e+00   2.16503859e+00
C     8.795323633650000e+00   5.367826582419101e+00   3.668506976000000e+00  9.90351300e-02  -3.70064528e+00  -1.45624882e+00
C     1.006402595475000e+01   5.955748597375777e+00   3.521604536000000e+00 -5.50864690e-01   2.79157069e+00   1.05618510e-01
C     7.431929224950000e+00   1.919119123101180e-01   7.068487936000000e+00 -5.58218840e-01   1.23379700e-02  -7.25213690e-01
C     1.279356001800000e+00   9.252219802677852e-01   7.020544671999999e+00 -1.93907182e+00  -7.32200150e-01  -4.60753000e-01
C     1.088273786700000e+00   3.843646001539344e-01   9.782610560000000e+00 -1.22522831e+00   8.88200270e-01   1.09034307e+00
C     2.327592999675000e+00   1.081679600852050e+00   9.933343440000000e+00 -2.40373251e+00   1.08015101e+00   1.01573000e-02
C     2.479547789100000e+00   2.195081155991724e-01   6.813618632000000e+00  2.41370890e-01   1.17576324e+00   5.74873870e-01
C     3.746207722125000e+00   8.540091305251506e-01   6.764393024000000e+00 -1.10029860e-01   6.90479290e-01   6.70160780e-01
C     3.481338566775000e+00   3.894651432413742e-01   1.009320219200000e+01  3.71646781e+00  -3.81375960e-01  -1.27906753e+00
C     4.746894056550000e+00   1.131702810698460e+00   9.908757088000000e+00  7.15348900e-01  -6.80946840e-01   9.15440880e-01
C     4.996824498450000e+00   2.202876418658916e-01   6.919471784000001e+00 -4.94627950e-01  -1.38273939e+00   1.78667000e-02
C     6.194037579749999e+00   9.498179168345868e-01   7.077955984000000e+00  7.94635370e-01   3.73748400e-02  -1.51300382e+00
C     6.047181753750000e+00   3.892937012584620e-01   9.818211688000000e+00 -1.68370118e+00   2.25145058e+00   7.19198930e-01
C     7.252363206375000e+00   1.207226110236346e+00   9.758848640000000e+00  7.57653410e-01  -4.47936737e+00  -3.15589900e-02
C     8.632117758450001e+00   2.331086458887186e+00   7.089614176000000e+00 -1.35577379e+00  -3.94513970e-01  -1.75323855e+00
C     2.456596260375000e+00   2.935787693479641e+00   6.901947368000000e+00  1.75100079e+00   2.79152718e+00   8.27012140e-01
C     2.324453896125000e+00   2.496579590715811e+00   9.898966311999999e+00 -7.51340640e-01   2.62686109e+00   6.08883400e-02
C     3.529941538725000e+00   3.288902589320549e+00   9.798659104000000e+00  5.24115770e-01  -2.71322926e+00   1.19081945e+00
C     3.728001047250000e+00   2.235020541624671e+00   6.819087192000000e+00 -1.20466946e+00   2.38325369e+00   2.92774100e-02
C     4.911491744699999e+00   3.022223207985181e+00   6.861561352000000e+00  2.68731740e-01   9.68945230e-01   1.37851520e-01
C     4.776887252174999e+00   2.595421241420007e+00   9.869087384000000e+00  2.80553900e-01  -2.66545184e+00  -7.52988210e-01
C     6.063580572974999e+00   3.242683444600400e+00   9.772639448000000e+00 -3.25289456e+00   1.50777400e-01   6.61791000e-02
C     6.162721233750000e+00   2.417602987254655e+00   6.941546760000000e+00  3.49870750e-01  -3.89752604e+00   2.79916820e-01
C     7.383863203950000e+00   3.070873152818671e+00   6.975637472000001e+00  3.56617190e-01   1.49879204e+00  -1.36960000e-03
C     7.273631411249999e+00   2.600911675725964e+00   9.685388511999999e+00 -4.24135430e-01  -2.09138875e+00   2.02032595e+00
C     8.452011054449999e+00   3.257663323947833e+00   9.928439824000000e+00  2.65991934e+00   7.82343270e-01  -8.80255890e-01
C     9.856294155975000e+00   4.382701031363655e+00   7.030368359999999e+00  9.01806000e-03   1.66622876e+00  -1.50938775e+00
C     3.714545696849999e+00   5.135017719840809e+00   6.964980512000000e+00 -2.04690802e+00   9.96970040e-01   4.91623060e-01
C     3.567310433400000e+00   4.673446332885330e+00   9.756804968000001e+00 -3.35788639e+00  -2.82176680e-01   8.61883700e-01
C     4.736628391500000e+00   5.340696096761627e+00   9.803279703999999e+00  3.20702505e+00   2.16578740e+00  -2.31107300e-02
C     4.910744923650000e+00   4.445639964206642e+00   6.937713327999999e+00  9.44796160e-01   1.03322665e+00  -8.64806450e-01
C     6.137380454475000e+00   5.269664871771901e+00   6.879510088000000e+00 -1.26762837e+00  -4.74752345e+00  -2.28441080e-01
C     5.993725073549999e+00   4.612117622596084e+00   9.816225136000000e+00 -4.65865100e-01   2.66778908e+00   1.15395866e+00
C     7.170459551099999e+00   5.359312505849703e+00   1.004370825600000e+01  1.17797014e+00   8.41668060e-01  -7.16935160e-01
C     7.307523805499999e+00   4.512793603189873e+00   6.886615136000000e+00  4.45548303e+00  -7.92489300e-02   4.20335080e-01
C     8.642147153249999e+00   5.203034524698411e+00   6.966011800000000e+00 -4.59059150e-01  -2.18732622e+00  -2.79673390e-01
C     8.414217797699999e+00   4.698699602478882e+00   9.972776504000000e+00  2.67982380e+00  -8.45334620e-01   1.39073510e-01
C     9.732711615149999e+00   5.372903621880194e+00   9.873004864000000e+00 -1.79037372e+00   9.43654540e-01   1.76473230e-01
