72
Lattice="7.395 0 0 3.6975 6.40425786098592 0 0 0 13.6 " PBC="1 1 1" Properties=species:S:1:pos:R:3:force:R:3 Energy="-569.56905682"
C     1.105911871117500e+01   6.390415633018818e+00   1.327875535200000e+01 -1.17002856e+00   8.16229800e-02   7.89540490e-01
C     1.234193997300000e+00   5.799543496678933e-01   1.322728302400000e+01 -8.97160660e-01   3.39387911e+00   9.34656050e-01
C     1.220561721525000e+00   8.171056192881582e-01   3.392361832000000e+00  6.10550160e-01  -2.48595930e+00   1.30767396e+00
C     2.551813762725000e+00   1.343698155444645e+00   3.376162328000000e+00 -4.13366670e+00   6.54964542e+00   6.45877880e-01
C     6.154368026624999e+00   6.327558098293233e+00   1.333958108000000e+01  8.57313860e-01   5.71569060e-01  -1.95816000e-03
C     3.712391755200000e+00   6.511016838526200e-01   1.322474934400000e+01 -1.16655186e+00  -8.00851500e-01   1.49725589e+00
C     3.743345746200000e+00   7.611218385662892e-01   3.588804720000000e+00  3.38207141e+00   4.59638843e+00  -3.13054440e-01
C     4.988652912525000e+00   1.535142685016140e+00   3.629942408000000e+00  3.77063600e-02  -8.76580700e-01   4.66096810e-01
C     8.623023054675000e+00   6.335958307157879e+00   1.324488985600000e+01 -1.88265472e+00   1.51288280e+00   1.00802252e+00
C     6.049372300650000e+00   6.686587006054956e-01   1.337418056800000e+01  5.32414896e+00   1.28555101e+00   3.78682740e-01
C     6.274691775825000e+00   7.459038489116214e-01   3.647490760000000e+00 -4.73325714e+00   3.40910133e+00  -3.92573600e-02
C     7.393416101924999e+00   1.531814520291455e+00   3.486412903999999e+00  3.47765040e+00  -3.40763700e-02  -4.90633890e-01
C     1.273726225275000e+00   2.030350515103911e+00   1.323072409600000e+01 -2.61653144e+00   2.27310736e+00   5.31948270e-01
C     2.477901440250000e+00   2.731306208310280e+00   1.292272081600000e+01 -6.89535900e-02   1.41653256e+00   3.38455435e+00
C     2.504268238800000e+00   2.850096353737433e+00   3.493051200000000e+00  1.60782223e+00  -2.11014170e-01  -4.78028810e-01
C     3.743848902000000e+00   3.615438470148305e+00   3.600802503999999e+00 -3.86782945e+00   9.53716510e-01   8.34741970e-01
C     3.720802014750000e+00   2.047174436459553e+00   1.328578560000000e+01 -2.25757168e+00   9.26206270e-01  -2.52113808e+00
C     4.872930886950000e+00   2.799564581774360e+00   1.343275168800000e+01  1.96031948e+00  -3.46617770e-01   1.91632052e+00
C     4.942138806225000e+00   3.008009021707490e+00   3.725849336000000e+00  2.47671526e+00  -5.16815697e+00  -1.94467678e+00
C     6.184271483924999e+00   3.601157295333398e+00   3.553194752000000e+00  3.40032005e+00   4.45993828e+00   2.58781280e-01
C     6.061953377175000e+00   2.041879972444112e+00   9.257479199999999e-02  2.68985655e+00   3.09507969e+00  -1.87499642e+00
C     7.414446113850000e+00   2.913939631832830e+00   5.322291999999999e-02  2.63384490e-01  -5.15915592e+00  -2.03649680e+00
C     7.511804653575000e+00   2.942923317587253e+00   3.421100128000000e+00 -6.85165894e+00  -1.66683161e+00   9.30684870e-01
C     8.670251961675000e+00   3.606309648866925e+00   3.491265111999999e+00  2.65512055e+00   1.56482934e+00  -6.93749840e-01
C     2.441550652200000e+00   4.185320843479777e+00   1.302802670400000e+01  6.16232610e-01   1.64606910e+00   2.15862041e+00
C     3.666070769325000e+00   5.016282202733201e+00   1.326998240000000e+01  8.64353140e-01  -5.25740990e+00  -2.17231550e-01
C     3.662007845399999e+00   5.036773330224636e+00   3.744551104000000e+00  1.68991438e+00  -5.87595700e-02  -8.63261020e-01
C     4.824898439250000e+00   5.822630590093918e+00   3.649411352000000e+00  4.95900442e+00  -1.87045889e+00  -8.56090720e-01
C     4.940883800775000e+00   4.201266484912497e+00   1.353213749600000e+01 -1.39752925e+00   3.17171636e+00  -1.02824633e+00
C     6.189968259150000e+00   4.970070422909592e+00   4.392595999999999e-02 -1.68372086e+00  -1.21089139e+00  -1.20737676e+00
C     6.243102628275000e+00   5.086133827467694e+00   3.585494752000000e+00 -3.31321761e+00  -6.44142400e-02   4.73943610e-01
C     7.466231524050000e+00   5.865887125128030e+00   3.644534256000000e+00 -6.17111430e-01  -9.15836308e+00  -1.56999342e+00
C     7.447215429450000e+00   4.335944761536789e+00   1.356193564000000e+01 -2.05394561e+00  -3.64937394e+00   9.64116340e-01
C     8.623717925850000e+00   4.976429594794258e+00   1.333255409600000e+01  2.70519080e+00  -2.92611690e+00  -1.73863881e+00
C     8.649244985174999e+00   5.043898259221621e+00   3.494095816000000e+00  9.41709800e-01   1.56054001e+00   2.17314471e+00
C     9.888589452074999e+00   5.763553296655354e+00   3.713884872000000e+00 -1.63378998e+00  -1.48206144e+00  -1.29300663e+00
C     7.370254259399999e+00   8.886561015051721e-02   7.358433000000001e+00  3.62108828e+00  -2.11119191e+00  -3.15656674e+00
C     1.265457506025000e+00   7.806272226879127e-01   6.939991871999999e+00 -5.84171850e-01  -3.48824228e+00   8.53129500e-02
C     1.173822289575000e+00   6.219881197487959e-01   1.018301781600000e+01  2.03867187e+00   1.41543479e+00  -7.65863200e-02
C     2.457041254500000e+00   1.347514260575683e+00   1.026459510400000e+01 -2.49131927e+00   3.55722300e-01  -1.36431450e+00
C     2.488900060725000e+00   5.548079030954460e-02   6.656102344000000e+00 -2.07258096e+00  -2.18513071e+00   7.66456520e-01
C     3.651759965324999e+00   7.933647792308238e-01   6.488523008000000e+00  1.15875054e+00  -2.48560150e-01   1.17466148e+00
C     3.643085889150000e+00   6.498875646475213e-01   1.045806054400000e+01 -3.66430260e-01   1.54631441e+00   1.58517600e-01
C     4.840513425450000e+00   1.391256750696213e+00   1.044466019200000e+01  3.62809867e+00   1.09826470e-01  -3.04198170e+00
C     4.823896527674999e+00   9.144876755834820e-02   6.858094847999999e+00  3.64467890e+00  -1.46354864e+00   1.27777200e-01
C     6.156535538099999e+00   7.552620707095465e-01   7.099296424000000e+00 -2.98941609e+00  -1.88195645e+00  -2.30188220e-01
C     6.108850285650000e+00   5.991015436474069e-01   1.033602448000000e+01 -6.79820100e-02   1.19321056e+00   2.36030860e-01
C     7.349766892574999e+00   1.351239681415424e+00   1.008551438400000e+01 -2.15289179e+00  -3.90099360e-01   1.72953368e+00
C     1.296197522700000e+00   2.118116706307602e+00   6.730915672000000e+00 -9.51749840e-01   3.85941584e+00   1.61019087e+00
C     2.495149020600000e+00   2.945294365974761e+00   6.651886616000001e+00 -1.26935027e+00  -2.14051450e-01  -5.08798400e-01
C     2.423565124800000e+00   2.768281062979833e+00   1.002086964000000e+01 -2.27623620e-01  -8.20353410e-01   5.80041070e-01
C     3.586647655875000e+00   3.541403135881611e+00   9.943185351999999e+00  4.47190978e+00  -2.25357496e+00   7.89613550e-01
C     3.637652449875000e+00   2.197658933822953e+00   6.406732064000000e+00  4.35828803e+00   2.09822659e+00   2.26841509e+00
C     5.016104705475000e+00   2.912145350908194e+00   6.629667072000000e+00 -3.48768237e+00  -1.71359400e+00   7.82808250e-01
C     4.937518595100000e+00   2.819793582991585e+00   9.992410551999999e+00 -4.46900356e+00  -1.93710477e+00   2.03826509e+00
C     6.128894913825000e+00   3.519911727355023e+00   1.014542741600000e+01 -5.58499010e-01  -2.87828590e-01   6.42283180e-01
C     6.136641952800000e+00   2.121663000054999e+00   6.989740808000001e+00  2.36421269e+00   3.12941736e+00  -1.48194049e+00
C     7.466359346625000e+00   2.813782866777082e+00   6.966026488000000e+00 -1.82090917e+00  -3.97433840e-01  -7.81182930e-01
C     7.287836651625000e+00   2.804239241714110e+00   1.020106692000000e+01  3.86855550e+00  -3.04192543e+00  -1.27460346e+00
C     8.583400644674999e+00   3.425652451234814e+00   1.011180658400000e+01 -1.82286700e+00   3.09282249e+00   1.82390472e+00
C     9.881407021349998e+00   4.385454798200876e+00   6.909647551999999e+00  2.08358611e+00  -1.59288775e+00   6.41966970e-01
C     3.833811406425000e+00   4.998639625095317e+00   7.171504943999999e+00 -5.47837224e+00   2.89245373e+00  -1.34278661e+00
C     3.693090731250000e+00   4.910624948686658e+00   1.014135557600000e+01 -1.04491880e+00   1.60572840e-01  -4.49312930e-01
C     4.936008166350000e+00   5.623781073329219e+00   1.015979921600000e+01 -1.06144228e+00  -7.63360860e-01   1.06249500e+00
C     4.993709872349999e+00   4.346953936968443e+00   6.811641056000000e+00  9.40256700e-02  -2.30016801e+00  -1.41931200e-02
C     6.207956115975000e+00   4.978474794541849e+00   6.697016176000000e+00  1.90496782e+00   1.90999442e+00   1.38072989e+00
C     6.144783884775000e+00   4.886490566983825e+00   1.038698150400000e+01 -8.70424130e-01   3.33248485e+00  -1.00229862e+00
C     7.287746543549999e+00   5.689839712303547e+00   1.063769247200000e+01  3.39245195e+00  -4.89899920e+00  -2.09560703e+00
C     7.435538280749999e+00   4.196105357545702e+00   6.841309048000000e+00 -2.01570890e-01   3.31257019e+00  -5.38743570e-01
C     8.622366748425000e+00   5.035807632181927e+00   6.920897064000001e+00 -5.89647150e-01   4.26356760e-01  -3.96461010e-01
C     8.597474475900000e+00   4.866574285677905e+00   1.045231957600000e+01 -1.03566139e+00   2.21977200e-02  -8.50387660e-01
C     9.850978851824999e+00   5.535525084484395e+00   1.039359532000000e+01 -1.16717066e+00   3.10097960e+00  -7.59858240e-01
