72
Lattice="7.395 0 0 3.6975 6.40425786098592 0 0 0 13.6 " PBC="1 1 1" Properties=species:S:1:pos:R:3:force:R:3 Energy="-582.18902861"
C     3.668434063424999e+00   6.220977286220697e+00   1.026106400000000e-01  7.08198780e-01   1.59809239e+00   3.46196050e-01
C     1.259320432500000e+00   5.256190889617668e-01   1.063559440000000e-01 -2.17877842e+00   8.36935820e-01  -1.96182600e-02
C     1.316759172300000e+00   9.175386640279861e-01   3.371245520000000e+00  2.98335420e-01  -2.80139450e-01   1.72212300e-02
C     2.553110956650000e+00   1.627430538439306e+00   3.323140960000000e+00  1.78228580e-01  -7.55555680e-01   2.51797360e-01
C     6.179782460099999e+00   6.230278382038511e+00   1.313507040000000e-01 -1.37007928e+00   7.91085320e-01  -2.73725370e-01
C     3.687758603475000e+00   5.348389787899158e-01   8.356125600000000e-02  2.21213810e-01   3.65167910e-01   6.49140070e-01
C     3.808587948825000e+00   9.223991755308331e-01   3.337062736000000e+00 -1.61982960e-01   1.99625190e-01   1.14045190e-01
C     5.062420699724999e+00   1.627459933982883e+00   3.337126248000000e+00 -1.64760173e+00  -5.85882700e-02   6.67746700e-01
C     8.607025931850000e+00   6.251567159846409e+00   1.462934320000000e-01 -2.46181560e-01  -1.44552655e+00  -6.10447000e-02
C     6.106047580649999e+00   5.292894972264900e-01   1.421870480000000e-01  2.68863233e+00   1.02635150e+00  -2.97647770e-01
C     6.265603505699999e+00   8.775192251717893e-01   3.397495424000000e+00 -7.18280150e-01   2.88356373e+00   1.74592100e-02
C     7.466168555624999e+00   1.589013637027417e+00   3.395079248000000e+00  2.00114697e+00   2.75369151e+00  -2.67094580e-01
C     1.226224183950000e+00   1.966330927789628e+00   8.714308800000001e-02 -6.91766340e-01  -6.02158100e-02  -1.12606940e-01
C     2.434470790125000e+00   2.683157524739492e+00   6.351662400000001e-02  1.50059715e+00  -8.70193370e-01   4.67381530e-01
C     2.539891100025000e+00   3.020050691591334e+00   3.326701440000000e+00  1.94502720e+00   9.67212080e-01  -1.89974000e-03
C     3.784091382750000e+00   3.735753469371925e+00   3.321082192000000e+00 -2.44063200e-01   1.53208030e+00   8.50328470e-01
C     3.682068890475000e+00   1.932736176376005e+00   1.212491680000000e-01  1.93300370e-01   1.97654497e+00  -9.52450840e-01
C     4.936347929625000e+00   2.672901874287645e+00   8.415163199999999e-02 -1.30586369e+00   3.55415610e-01   5.38404460e-01
C     5.021915215800000e+00   3.063504285639798e+00   3.411725240000000e+00 -9.11870700e-02  -1.52443572e+00  -9.83049750e-01
C     6.229498749299999e+00   3.760242454832464e+00   3.390262672000000e+00  2.56888601e+00   8.91434340e-01  -7.67813400e-02
C     6.153646903200000e+00   1.958186248813595e+00   1.188831760000000e-01 -2.17054100e-01   4.77820900e-01  -2.52612080e-01
C     7.375164428474999e+00   2.704593472393012e+00   9.331857600000000e-02  5.50136840e-01  -1.53223729e+00  -1.53243000e-01
C     7.530913777274999e+00   3.089268422882843e+00   3.353668472000000e+00 -2.87967634e+00  -2.62155078e+00   4.99075530e-01
C     8.757799554900000e+00   3.763730469833335e+00   3.363616600000000e+00 -1.43514535e+00   2.51675500e-02  -2.39136960e-01
C     2.471726023650000e+00   4.091922683871423e+00   9.942429600000001e-02 -1.43890087e+00   8.78853630e-01   2.42356980e-01
C     3.674667493800000e+00   4.833782692242504e+00   1.110290400000000e-01  3.88449970e-01  -1.33369497e+00  -1.03487150e-01
C     3.796927512825000e+00   5.201435829808819e+00   3.391119472000000e+00 -2.98312640e-01  -1.09520534e+00  -1.15249600e-01
C     5.039924924849999e+00   5.903720534606294e+00   3.376055160000000e+00 -1.12932523e+00  -2.59943240e-01   8.42099300e-02
C     4.905049479524999e+00   4.124454840820915e+00   1.185097200000000e-01  4.71033600e-01  -7.40234900e-01  -1.35914650e-01
C     6.122897753699999e+00   4.849407032058389e+00   1.530524960000000e-01  1.44358557e+00  -2.35375388e+00  -6.51907840e-01
C     6.247960810500000e+00   5.186595050942104e+00   3.362938232000000e+00  2.79746660e-01  -1.12058190e-01   3.20828670e-01
C     7.474882010175000e+00   5.906198662185222e+00   3.390094168000000e+00  1.12671938e+00  -9.85807470e-01  -5.24850230e-01
C     7.383547733249999e+00   4.109961941241156e+00   7.918423200000001e-02 -4.63607510e-01   7.68012740e-01   9.07763560e-01
C     8.626825193924999e+00   4.820780831977711e+00   1.752011840000000e-01 -2.32658990e-01  -5.47173930e-01  -1.07194883e+00
C     8.724201148875000e+00   5.166069468543384e+00   3.368498184000000e+00  3.91220900e-02   1.99313182e+00   5.84937050e-01
C     9.949825339500000e+00   5.927853315244661e+00   3.434599760000000e+00  1.19954470e-01  -3.73517920e+00  -6.40932410e-01
C     7.412369006250000e+00   1.423324534908276e-01   6.727313440000001e+00  6.72895650e-01  -7.81285540e-01  -4.26781600e-02
C     1.259221746225000e+00   8.347971254560937e-01   6.728216479999999e+00 -4.99518140e-01   5.16063360e-01   3.06080900e-02
C     1.123194751500000e+00   5.322962962917600e-01   1.019477093600000e+01  4.46176590e-01   1.13568975e+00  -3.95712030e-01
C     2.325964768575000e+00   1.240980263628105e+00   1.011907496800000e+01  2.13137345e+00   9.81156120e-01  -7.23932000e-03
C     2.481176316000000e+00   1.647054721544232e-01   6.780755592000000e+00  3.56262900e-01  -2.67196441e+00  -1.95431930e-01
C     3.702156335700000e+00   8.526698080788888e-01   6.778304328000000e+00  8.48215060e-01  -1.09397337e+00   1.31062000e-01
C     3.607812330750000e+00   5.277406915056276e-01   1.006881127200000e+01 -1.43715408e+00   1.29055351e+00   1.05458775e+00
C     4.832857566825000e+00   1.277394361479436e+00   1.017764731200000e+01 -1.43648950e-01  -7.67778380e-01  -7.45875530e-01
C     4.939935059250000e+00   1.253062216293888e-01   6.806634080000000e+00  6.80435210e-01   3.16894680e-01  -6.64693430e-01
C     6.204672403199999e+00   8.539883166871056e-01   6.727591832000000e+00 -1.82032510e+00  -9.60509370e-01   5.74753470e-01
C     6.050106882974999e+00   5.597663997435510e-01   1.018461418400000e+01  4.81623940e-01  -1.01833224e+00   1.77662450e-01
C     7.301608064325000e+00   1.260781972760911e+00   1.020139930400000e+01 -1.26408137e+00  -4.26248000e-03   1.73473550e-01
C     8.657210546400000e+00   2.241303502840803e+00   6.702066808000001e+00 -1.62962570e-01   1.46802496e+00   4.53444470e-01
C     2.511821898525000e+00   2.975014797553399e+00   6.755399752000000e+00 -1.68027318e+00  -3.18777800e-02  -6.18526030e-01
C     2.350781686050000e+00   2.708030829714210e+00   1.012600022400000e+01  1.06079088e+00  -2.60843041e+00   8.44369800e-02
C     3.578562369600000e+00   3.385875797794090e+00   1.016192788800000e+01  1.29932363e+00   8.37055290e-01  -1.85158800e-01
C     3.704014070625000e+00   2.238600329640675e+00   6.752295416000000e+00  1.34339441e+00   2.29900419e+00   2.39077750e-01
C     4.949331700875000e+00   2.994046586806275e+00   6.774331496000000e+00 -2.28395050e-01  -2.06281052e+00  -4.37964000e-02
C     4.839110778825000e+00   2.698426172073832e+00   1.015712504800000e+01 -1.60575489e+00  -7.84481960e-01   3.55757070e-01
C     6.033543377100000e+00   3.401165707264525e+00   1.018949304800000e+01  1.71766656e+00  -5.01240280e-01   1.57942690e-01
C     6.183947028300000e+00   2.263233859201115e+00   6.764981496000000e+00 -2.22600090e-01   5.49788360e-01  -3.27552400e-01
C     7.406325664350000e+00   2.961588719247959e+00   6.727880016000000e+00  8.81355580e-01   4.04856700e-01   1.43193900e-01
C     7.284713410349999e+00   2.678613639745243e+00   1.021490138400000e+01  8.31508410e-01   4.20440200e-01  -6.10090430e-01
C     8.567685419249999e+00   3.396515191376908e+00   1.013643781600000e+01 -3.62653165e+00   1.56441780e-01   5.64542680e-01
C     9.875880700874999e+00   4.413913847151409e+00   6.716377951999999e+00  9.02351550e-01  -6.35156750e-01   5.33393990e-01
C     3.732416453850000e+00   5.119353161285564e+00   6.739051192000000e+00 -8.08996230e-01  -1.57120100e-01  -1.21818000e-03
C     3.599781656550000e+00   4.809031260294862e+00   1.018709836000000e+01  1.00794400e-01   2.98816620e-01  -1.29340260e-01
C     4.868584549650000e+00   5.550105338141365e+00   1.018089934400000e+01 -2.69350856e+00  -1.94195067e+00   2.35274960e-01
C     4.961700688800000e+00   4.380920455550839e+00   6.776633432000000e+00 -1.46511230e-01   1.48035329e+00  -1.56762820e-01
C     6.205770190950000e+00   5.094779127280643e+00   6.779497864000000e+00 -1.35786625e+00   1.64371369e+00   1.31979260e-01
C     6.045709187400000e+00   4.809277311881843e+00   1.018767037600000e+01  8.91388760e-01   8.23911540e-01  -2.99733420e-01
C     7.274277882149999e+00   5.525251694238277e+00   1.013986841600000e+01  7.89732880e-01  -4.68873650e-01  -4.88782500e-02
C     7.406078560425000e+00   4.401848225343169e+00   6.769951344000000e+00  6.77671420e-01  -1.16250144e+00  -1.02443610e-01
C     8.636293640999998e+00   5.101521529955652e+00   6.768894216000000e+00  4.35706330e-01   8.97647920e-01  -5.73995200e-02
C     8.510785331250000e+00   4.806879429653902e+00   1.015264289600000e+01  4.24399250e-01   1.94872630e-01  -3.12008900e-02
C     9.740609844900000e+00   5.494398541571941e+00   1.017490650400000e+01  6.61101090e-01   1.94159620e+00  -2.27747100e-02
