72
Lattice="7.395 0 0 3.6975 6.40425786098592 0 0 0 13.6 " PBC="1 1 1" Properties=species:S:1:pos:R:3:force:R:3 Energy="-570.04948565"
C     1.100240124270000e+01   6.322671329333160e+00   1.316912656800000e+01  2.37438694e+00  -5.01776460e-01  -2.60286010e-01
C     1.182073075950000e+00   6.169548213688861e-01   1.306961224000000e+01 -7.69699940e-01  -6.92923500e-01   3.02546540e-01
C     1.269114814200000e+00   7.917983618008464e-01   3.501945736000000e+00  9.53239900e-01   1.01165869e+00   5.33520790e-01
C     2.518422934350000e+00   1.544458254456718e+00   3.433591863999999e+00  2.04367773e+00  -5.24272798e+00   1.14126348e+00
C     6.127504173149999e+00   6.279495103692612e+00   1.314232450400000e+01  2.46785600e-01   1.80528118e+00   1.45980917e+00
C     3.662750673149999e+00   6.298085511493776e-01   1.325324760000000e+01 -3.72920180e-01  -1.03256885e+00  -2.22457804e+00
C     3.853163418900000e+00   8.824155364760737e-01   3.698977096000000e+00 -4.11394442e+00  -2.95097719e+00  -1.00143010e+00
C     5.040709349475000e+00   1.608436726435539e+00   3.841332648000000e+00 -1.14194201e+00  -7.35189820e-01  -1.53492783e+00
C     8.601206917274999e+00   6.370273729708488e+00   1.312622958400000e+01  8.24545820e-01  -2.13518223e+00   1.38650146e+00
C     6.129740458124999e+00   6.749321194774158e-01   1.324423760000000e+01 -3.80924970e-01   8.89502270e-01   9.88160800e-02
C     6.192637225574999e+00   8.648248973694330e-01   3.822110680000000e+00  3.52502520e+00  -6.10423550e-01  -1.36972316e+00
C     7.471609426875000e+00   1.568151638963309e+00   3.547844104000000e+00 -2.13993268e+00  -7.00154890e-01   1.12876868e+00
C     8.537150465925000e+00   2.056228712179442e+00   1.300174633600000e+01  4.04757016e+00  -1.56292704e+00   8.47699790e-01
C     2.454313793625000e+00   2.731348540454734e+00   1.286337912000000e+01 -9.12434310e-01   2.10814610e-01   4.58369420e-01
C     2.546746412925000e+00   2.865212259521813e+00   3.530417063999999e+00 -1.20787778e+00   5.78060988e+00   6.63472510e-01
C     3.682772709600000e+00   3.647016200548921e+00   3.823572816000000e+00  4.15274048e+00   4.41351740e-01  -1.61326288e+00
C     3.680882325750000e+00   2.011840224568574e+00   1.293657636000000e+01  9.93341530e-01   1.62239077e+00   3.88558483e+00
C     4.887202312575000e+00   2.774049313991756e+00   1.343292508800000e+01  1.24551620e-01   1.18973009e+00  -2.70284744e+00
C     5.045540687850000e+00   2.979488619966659e+00   3.670812448000000e+00 -1.49989015e+00   3.76397315e+00   1.62971517e+00
C     6.281295547799999e+00   3.804084595205294e+00   3.672356184000000e+00 -3.38601803e+00  -4.01647719e+00   2.65573070e-01
C     6.189631897575000e+00   2.147571617355364e+00   1.347527875200000e+01 -3.05690845e+00  -3.82912070e+00  -3.10099120e-01
C     7.438995739049999e+00   2.717419471736970e+00   1.347158893600000e+01 -8.58465760e-01   4.65305798e+00  -1.88452260e-01
C     7.437131274675000e+00   3.018310398560457e+00   3.563206120000000e+00  3.06837764e+00  -9.80597900e-02  -4.98545050e-01
C     8.757334779150000e+00   3.676525227575601e+00   3.526038952000000e+00 -2.47126335e+00  -1.65527094e+00   7.12118470e-01
C     2.509042635675000e+00   4.157445478590605e+00   1.288079772800000e+01 -2.08792584e+00  -1.58614269e+00   1.22798207e+00
C     3.672256058249999e+00   4.845709982080968e+00   1.308846211200000e+01 -1.83475850e-01   4.31970678e+00  -8.56220000e-03
C     3.709841219700000e+00   5.107851882679947e+00   3.905124671999999e+00  2.57177990e-01  -9.84562540e-01  -1.42594881e+00
C     5.005766199675000e+00   5.777171950994645e+00   3.788599056000000e+00 -6.51874842e+00   4.15179542e+00  -4.89002340e-01
C     4.876965007350000e+00   4.262156823751226e+00   1.330093668000000e+01  2.44955471e+00  -4.42855689e+00   1.39885236e+00
C     6.148156744274999e+00   4.908623041722200e+00   1.344604868000000e+01  9.77948630e-01  -1.28401080e-01  -3.79426900e-01
C     6.164073224625000e+00   5.196905842054127e+00   3.784808192000000e+00  6.00106409e+00  -4.16818124e+00  -1.28376353e+00
C     7.449467169975000e+00   5.733125002455451e+00   3.649901768000000e+00  1.20835505e+00   5.78358564e+00   1.21457232e+00
C     7.471756661324999e+00   4.214821352843502e+00   1.357115372000000e+01 -6.06300890e-01  -9.86289500e-01  -2.93167179e+00
C     8.684154561675001e+00   4.860223631456194e+00   1.304748544800000e+01 -2.68803344e+00   2.27604323e+00   2.67912947e+00
C     8.693230038450000e+00   5.060892918091811e+00   3.732163272000000e+00 -1.65031510e-01   4.09693830e-01  -1.25760754e+00
C     9.873638056199999e+00   5.844484863870854e+00   3.752426184000000e+00  1.47589970e+00  -2.03937260e-01   1.35409097e+00
C     7.812170437499999e-02   7.460121449120340e-02   7.288958080000000e+00 -4.15197105e+00   1.28814477e+00  -6.82100870e-01
C     1.253403138375000e+00   7.128090779091283e-01   6.960746560000000e+00  5.91274730e-01   3.92713604e+00  -7.52327210e-01
C     1.201821016725000e+00   5.808373046990515e-01   1.015346773600000e+01 -4.33953876e+00   3.91776170e-01   7.89274580e-01
C     2.345419423650000e+00   1.316131603869483e+00   1.019734160800000e+01  3.83943531e+00   6.71564920e-01   4.57999630e-01
C     2.424737971800000e+00   3.729391479613800e-02   6.695711255999999e+00  3.70069762e+00   1.26124283e+00   5.27597740e-01
C     3.647857549875000e+00   8.627983340122146e-01   6.605062360000000e+00  1.09012309e+00  -1.32779833e+00   5.23415220e-01
C     3.630060484049999e+00   6.811933702594020e-01   1.057736382400000e+01  7.92773580e-01  -2.78930343e+00  -3.84580351e+00
C     4.901222899799999e+00   1.333650451245513e+00   1.023529703200000e+01 -3.44601607e+00  -1.45873219e+00   2.31443184e+00
C     4.887646456275000e+00   8.617204333717982e-02   6.834610504000000e+00 -1.13368904e+00   3.30844360e-01   9.66799290e-01
C     6.062474539800000e+00   7.463367127003788e-01   7.199623079999999e+00  4.23925547e+00   1.90387107e+00  -1.56359912e+00
C     6.081625630125000e+00   5.583026425670694e-01   1.041791824000000e+01 -9.18384820e-01  -1.13228070e-01  -1.49794675e+00
C     7.245518394375000e+00   1.242926773762074e+00   1.017388704800000e+01  4.53027535e+00   5.83708900e-01  -2.63984690e-01
C     1.302103391550000e+00   2.225667891531084e+00   6.821554912000000e+00 -2.75386730e-01  -2.14738943e+00   1.53099450e-01
C     2.477296862025000e+00   3.050881813610631e+00   6.556785488000000e+00  1.33550976e+00  -2.01595637e+00   2.75727436e+00
C     2.371857325125000e+00   2.735610958316036e+00   1.000434373600000e+01  2.86301300e-02   5.66813740e-01   4.70043500e-01
C     3.658295629350000e+00   3.430310203933814e+00   9.915846631999999e+00 -3.68279283e+00   1.09183580e+00   1.73808777e+00
C     3.750767368200000e+00   2.318812314443025e+00   6.561117768000000e+00 -4.57602471e+00  -3.47131660e+00   9.42604000e-02
C     4.938729378450000e+00   2.902153363752443e+00   6.694032200000000e+00  4.63484134e+00   2.60138083e+00   1.46953922e+00
C     4.806132036825000e+00   2.733680586911875e+00   1.011371956000000e+01  4.08563368e+00  -1.83145920e-01  -4.35605520e-01
C     6.058042605374999e+00   3.440999358600203e+00   1.023488930400000e+01  7.25924720e-01   2.72841170e-01  -4.12441580e-01
C     6.196491832350000e+00   2.176310020033750e+00   6.970344216000000e+00 -2.58765186e+00  -2.01338217e+00   1.75596920e-01
C     7.440458543999999e+00   2.793726588394342e+00   7.002472175999999e+00  4.62661800e-01   4.49146380e+00  -1.17747662e+00
C     7.300812177450000e+00   2.651550398795298e+00   1.013721410400000e+01 -1.47241445e+00   2.52082249e+00   1.03306538e+00
C     8.512868096024999e+00   3.432615672720835e+00   1.018439563200000e+01  7.26174480e-01  -2.33907301e+00  -1.15853036e+00
C     2.540286769499999e+00   4.394570362668486e+00   7.011929343999999e+00 -2.21858357e+00   6.27725640e-01  -1.33360104e+00
C     3.749032242375000e+00   5.121155127319632e+00   7.184670968000000e+00  2.27259295e+00  -4.23590814e+00  -2.28054971e+00
C     3.653070950925000e+00   4.857821522418065e+00   1.012406372000000e+01 -1.26486422e+00   6.22695250e-01   5.77386450e-01
C     4.888862453100000e+00   5.600128483945196e+00   1.024869928800000e+01 -7.87154090e-01  -9.44714190e-01  -4.23494240e-01
C     5.030197541850000e+00   4.328576278613387e+00   6.819989416000000e+00 -1.56185656e+00   1.59860549e+00   1.29319248e+00
C     6.303565775175000e+00   5.041746044325190e+00   6.792270847999999e+00 -4.28219734e+00  -1.01699102e+00   1.35297820e-01
C     6.090745218075000e+00   4.906576240910145e+00   1.036408617600000e+01  1.95957736e+00  -2.88071375e+00  -1.73402940e-01
C     7.400352427050000e+00   5.504870912109769e+00   1.055782035200000e+01 -6.40158589e+00   5.50597432e+00  -6.15159590e-01
C     7.462128630150000e+00   4.297706346791458e+00   6.857320600000000e+00  5.08307950e-01  -1.37911666e+00   2.11388390e-01
C     8.623470526124999e+00   5.064025816994344e+00   6.925270960000000e+00  1.78105991e+00  -3.95948260e-01   2.21303860e-01
C     8.506538900399999e+00   4.809320860835291e+00   1.041116108000000e+01  4.59488625e+00  -2.30554820e-01  -8.07371070e-01
C     9.771805060799998e+00   5.544425529930487e+00   1.039962868800000e+01  1.01490984e+00  -1.29334680e+00  -1.39645867e+00
