72
Lattice="7.395 0 0 3.6975 6.40425786098592 0 0 0 13.6 " PBC="1 1 1" Properties=species:S:1:pos:R:3:force:R:3 Energy="-581.81396103"
C     3.704302549574999e+00   6.265662355013061e+00   5.294167200000000e-02 -8.82281130e-01  -1.82504049e+00   7.58645050e-01
C     1.224202612800000e+00   5.397407337133813e-01   6.666094400000000e-02  7.36529870e-01   9.83411790e-01  -2.37566430e-01
C     1.333064185950000e+00   9.233716620868740e-01   3.356392280000000e+00 -6.26854100e-02  -3.92195290e-01  -1.13804040e-01
C     2.555314481775000e+00   1.622537109051058e+00   3.238601592000000e+00  7.23370900e-02   1.05119788e+00   5.95911120e-01
C     6.164545025624999e+00   6.256139864001027e+00   1.358139520000000e-01 -4.46879490e-01  -7.75632180e-01  -1.53192190e-01
C     3.694775829900000e+00   5.489053547961984e-01   7.746206400000000e-02 -5.46623860e-01   2.92516060e-01   4.98941240e-01
C     3.767950686000000e+00   9.121904682891001e-01   3.302722464000000e+00  2.67002720e-01  -7.13215190e-01   1.45226930e-01
C     4.997887196925000e+00   1.596320254819891e+00   3.359218360000000e+00  9.19832800e-01   4.96677720e-01   7.16748900e-01
C     8.592881589299999e+00   6.218507996517618e+00   1.698004880000000e-01  1.21443848e+00   1.75740656e+00  -8.83601600e-02
C     6.156493460549999e+00   5.221516956712057e-01   1.668906320000000e-01 -6.44865870e-01   2.76188660e-01  -6.53131640e-01
C     6.254435354850000e+00   9.170559110704992e-01   3.481050016000000e+00  2.71414610e-01  -1.25817827e+00  -3.70043630e-01
C     7.502347299000000e+00   1.638219151230262e+00   3.395391504000000e+00 -1.13358503e+00  -2.78446453e+00   2.11161900e-01
C     1.227436372350000e+00   1.962880569824975e+00   1.359927607200000e+01 -5.69871300e-02   7.40299440e-01   4.92417410e-01
C     2.481505837200000e+00   2.682317350150838e+00   1.354986727200000e+01 -2.14796345e+00   1.16821137e+00   4.85733090e-01
C     2.571607663425000e+00   3.078164592520017e+00   3.264537064000000e+00 -1.49946879e+00  -6.48408550e-01   1.46392580e-01
C     3.785674763175000e+00   3.786857974115416e+00   3.355211256000000e+00  9.26305930e-01  -1.68637497e+00   5.58563700e-01
C     3.687918261525000e+00   1.983940139244063e+00   3.281652800000000e-02 -2.35943500e-01  -8.67270340e-01  -3.91373290e-01
C     4.892725527150000e+00   2.670823116228868e+00   9.992382399999999e-02  1.76087547e+00   3.78117250e-01   3.81265270e-01
C     4.996131660900000e+00   3.006044899864407e+00   3.438183224000000e+00  1.15889999e+00   1.84649524e+00  -9.22385500e-01
C     6.280110314174999e+00   3.724318987175787e+00   3.414462648000000e+00 -2.25621558e+00   9.38924700e-02  -4.07336200e-02
C     6.126815070074999e+00   1.930087503410266e+00   1.629898800000000e-01  1.02421159e+00   1.60129030e+00  -2.41486530e-01
C     7.382058528149999e+00   2.677425009486427e+00   1.262271760000000e-01 -5.40696930e-01   3.22621880e-01  -4.89832100e-01
C     7.472499526049999e+00   2.993297224594077e+00   3.333588752000000e+00  1.52050416e+00   3.57924577e+00   1.45126790e-01
C     8.703952418699998e+00   3.772769823632410e+00   3.298103088000000e+00  5.37002270e-01  -3.33798010e-01   3.13681170e-01
C     2.414694526500000e+00   4.142794393841704e+00   1.359872908000000e+01  1.70745901e+00  -1.54406702e+00   6.15106830e-01
C     3.681216136050000e+00   4.820480792496970e+00   4.517525600000000e-02  2.51369590e-01   2.16629480e-01   1.09826420e-01
C     3.801284351025000e+00   5.181812030959364e+00   3.480612232000000e+00  2.72577510e-01   1.96710960e-01  -3.67859590e-01
C     5.021842781775000e+00   5.907908599033841e+00   3.415217856000000e+00  1.09479538e+00  -8.42071280e-01   6.32016000e-02
C     4.929584647500000e+00   4.090279479389704e+00   1.398734160000000e-01 -9.61731470e-01   6.06171210e-01  -2.91921280e-01
C     6.165887218125000e+00   4.816742306971195e+00   2.371795120000000e-01 -1.87236143e+00   1.18822176e+00  -9.77489340e-01
C     6.277261279499999e+00   5.160249343042794e+00   3.373889768000000e+00 -6.62035220e-01   3.43301440e-01   2.38813690e-01
C     7.503770392799999e+00   5.895103477570507e+00   3.363091368000000e+00 -1.30494531e+00   4.23866180e-01  -1.06895340e-01
C     7.359370779074999e+00   4.156131709133204e+00   1.491124400000000e-01  1.26751856e+00  -3.37550374e+00   5.25536020e-01
C     8.587033105649999e+00   4.838314601274555e+00   1.840441760000000e-01  3.89402850e-01  -1.01925741e+00  -1.22188616e+00
C     8.726329614750000e+00   5.222484383904388e+00   3.402786640000000e+00 -1.58096980e-01  -2.83365720e+00   1.21052700e-02
C     9.965628713325000e+00   5.847096328098426e+00   3.523845544000000e+00 -5.29921700e-02   3.28172499e+00  -6.79084770e-01
C     7.436426974874999e+00   1.267058721846918e-01   6.793536327999999e+00 -8.16895760e-01   2.84870000e-04   5.29756700e-02
C     1.255312860150000e+00   8.572083775391137e-01   6.747549151999999e+00  3.09167450e-01  -9.85731990e-01   5.56344000e-03
C     1.138490199750000e+00   5.551506589761133e-01   1.019091220800000e+01 -6.69438200e-01  -5.86589410e-01  -5.42578060e-01
C     2.381838356625000e+00   1.256993982321878e+00   1.001368775200000e+01 -1.88463555e+00  -4.07096370e-01   5.18213370e-01
C     2.497567629300000e+00   1.144182147564456e-01   6.790434168000000e+00 -4.37110660e-01   2.22197278e+00  -1.49741740e-01
C     3.752139769275000e+00   8.002227147176263e-01   6.771353640000000e+00 -6.08753250e-01   1.42148031e+00   1.55586940e-01
C     3.561186264150000e+00   5.433709232387437e-01   1.002147116800000e+01  2.54838161e+00  -5.96283970e-01   1.02817446e+00
C     4.814679473625000e+00   1.255362049333993e+00   1.014962628000000e+01 -5.73380800e-02   3.73016800e-02  -4.88910640e-01
C     4.991275734150000e+00   1.384687647238896e-01   6.882012624000000e+00 -7.23449580e-01  -8.16503530e-01  -6.89157250e-01
C     6.198418562624999e+00   8.526327274258794e-01   6.823665632000000e+00  9.01853680e-01   3.85910530e-01  -8.89245200e-02
C     6.073208197425000e+00   5.517791374257163e-01   1.023980121600000e+01 -5.21650550e-01   9.36514780e-01  -3.06221950e-01
C     7.303983634125000e+00   1.289480604997985e+00   1.023807116000000e+01  3.33576920e-01  -9.28792470e-01  -4.26686600e-02
C     8.638298869200000e+00   2.270682779603238e+00   6.686230288000000e+00 -2.04593890e-01  -5.03709000e-01   3.66198240e-01
C     2.472036724575000e+00   2.923308868954274e+00   6.709548984000000e+00  1.40403229e+00   1.67877648e+00  -4.02127780e-01
C     2.376451025175000e+00   2.646875738855548e+00   1.000228496800000e+01 -7.74853280e-01   2.80795880e+00   6.61750880e-01
C     3.601537451400000e+00   3.411488858594217e+00   1.007333830400000e+01 -6.86475560e-01  -1.43228133e+00  -3.14985300e-02
C     3.739368160574999e+00   2.244003217741685e+00   6.696998767999999e+00 -1.08970802e+00  -1.21127186e+00   5.68250250e-01
C     4.949073467475000e+00   2.944844210689782e+00   6.764557040000000e+00  2.35397020e-01   2.23597032e+00  -1.21401800e-02
C     4.819088261699999e+00   2.691432658448134e+00   1.012410316000000e+01  9.69204870e-01  -4.90194360e-01   3.32220270e-01
C     6.083402981400001e+00   3.391172887555253e+00   1.020342475200000e+01 -1.57896325e+00   4.61909640e-01   1.53850930e-01
C     6.188517692924999e+00   2.290747383521197e+00   6.773988368000000e+00  3.99483660e-01  -1.34518334e+00  -8.44762300e-02
C     7.421952001875000e+00   3.005674925887834e+00   6.716396447999999e+00 -6.40434640e-01  -6.34981470e-01   2.83316480e-01
C     7.310009856599999e+00   2.717381686615596e+00   1.022326688000000e+01 -9.36970680e-01  -1.50665988e+00  -4.34330760e-01
C     8.499760199700001e+00   3.401941390976529e+00   1.011019199200000e+01  2.88200932e+00   1.63285490e-01   2.78141130e-01
C     9.883810840050000e+00   4.358992788978829e+00   6.729996312000000e+00 -7.24147180e-01   6.81024830e-01   7.21272570e-01
C     3.711385258725000e+00   5.089071332462918e+00   6.791509112000000e+00  2.51262700e-02   5.41310530e-01  -1.54575260e-01
C     3.601917924149999e+00   4.815459085823787e+00   1.017070410400000e+01 -1.44454783e+00   1.12539730e-01  -1.51310390e-01
C     4.800125780849999e+00   5.495526203295929e+00   1.019526407200000e+01  1.82500892e+00   2.27405963e+00   1.49628780e-01
C     4.941127133249999e+00   4.410756612069007e+00   6.806318151999999e+00 -2.62780020e-01  -1.25581265e+00  -1.85790830e-01
C     6.141785729924999e+00   5.150093534970985e+00   6.830444279999999e+00  1.45290016e+00  -2.76409696e+00  -2.07155900e-01
C     6.055457424300000e+00   4.811774844362086e+00   1.021155007200000e+01 -4.92724290e-01  -5.27012610e-01  -4.52768010e-01
C     7.264582926225000e+00   5.521427519742335e+00   1.014788085600000e+01  1.05220421e+00   6.11232170e-01   3.66617600e-02
C     7.392948294224999e+00   4.402845880632600e+00   6.781917031999999e+00  7.57462310e-01   1.69271164e+00   2.36822030e-01
C     8.657127907274999e+00   5.120032332831617e+00   6.835058624000000e+00 -7.27110100e-02  -1.35615476e+00  -4.89937410e-01
C     8.524475657775000e+00   4.829969789240396e+00   1.017766349600000e+01 -1.85202110e-01   6.20252100e-02  -4.51014760e-01
C     9.768191087325000e+00   5.552599476364941e+00   1.018355256800000e+01 -3.79282590e-01  -1.01773033e+00   1.61433320e-01
