26
Lattice="8.88768389401873 1.33226762955019e-15 0 4.44384194700937 7.69696003302603 0 0 0 30 " PBC="1 1 1" Properties=species:S:1:pos:R:3:force:R:3 Energy="-208.76628262"
C     1.291279674456691e+01   7.122572540490842e+00   5.153370000000000e-02 -1.11148445e+00   1.02870179e+00  -2.52567580e-01
C     9.123265776402132e+00   7.003050835452190e+00  -4.352279999999809e-02 -1.21310926e+00  -5.33190400e-02  -2.64440770e-01
C     1.045798561381889e+01   6.602190540123379e+00  -1.396946999999997e-01  2.52864478e+00  -7.54319380e-01   3.93051620e-01
C     1.089029446681994e+01   5.209091266751177e+00  -1.505849999999995e-01 -2.37853890e+00   6.42898600e-02   4.77143410e-01
C     6.700399292271203e+00   6.357389419095632e+00   1.362312000000000e-01  1.76304179e+00   6.33290160e-01  -7.52817900e-01
C     8.085805902029902e+00   6.030930017596011e+00  -8.321400000000168e-02 -1.58470050e-01  -1.64490025e+00   7.09911950e-01
C     8.451607772091052e+00   4.627315465309222e+00  -1.624034999999999e-01 -3.02768350e-01   3.71214450e-01   3.91839220e-01
C     9.816609192794608e+00   4.223102682069745e+00  -1.245831000000024e-01  3.77395410e-01   5.88713630e-01  -5.82800000e-03
C     1.011605952553244e+01   2.847983045510020e+00   3.930180000000000e-02  1.78929387e+00  -2.83151420e-01  -1.62063680e-01
C     4.380052419583992e+00   5.740806040158010e+00  -1.753889999999814e-02 -1.07011902e+00   1.29044734e+00   8.67395000e-01
C     5.707990643123987e+00   5.340315429819442e+00   5.993070000000000e-02  1.02844804e+00   2.08646687e+00  -1.72458100e-01
C     6.081907812962735e+00   4.022998500662610e+00  -2.784959999999970e-02 -1.49947440e-01  -2.15675050e+00   4.06041810e-01
C     7.434202156494864e+00   3.608717016129489e+00  -8.998560000000211e-02  7.28556310e-01   1.38840695e+00  -1.24888780e-01
C     7.802109741093014e+00   2.253382492296480e+00  -5.289300000000097e-02 -1.24969715e+00  -1.29439650e+00   1.43483080e-01
C     9.142865204623293e+00   1.827611139769775e+00   4.243020000000000e-02 -5.47896320e-01   3.23494440e-01   2.64991390e-01
C     3.347518766221417e+00   4.801822867349390e+00  -1.847069999999817e-02 -3.96285870e-01  -1.27618521e+00  -7.73782780e-01
C     3.684325367478581e+00   3.391417133288932e+00   1.880400000000000e-02 -1.03865617e+00   1.42579119e+00   7.63570630e-01
C     5.058777240246526e+00   3.034112395377886e+00   6.852269999999999e-02 -6.95140260e-01  -3.28664880e-01  -1.08367189e+00
C     5.353880073535748e+00   1.663647726305104e+00  -2.121059999999986e-02  1.73222744e+00  -9.37961150e-01   7.28684250e-01
C     6.773167778502605e+00   1.250572432378285e+00  -3.869820000000246e-02 -1.40554225e+00   5.65787150e-01  -4.82408100e-02
C     1.152084675537429e+01   7.566665197885757e+00  -3.953279999999992e-02  6.09314680e-01  -6.19307070e-01  -1.37751650e-01
C     2.606450083794353e+00   2.458080065510317e+00   1.241220000000000e-01  7.16808070e-01  -7.56402120e-01  -3.91377790e-01
C     2.958615580467566e+00   1.061376459695266e+00   1.735833000000000e-01 -9.51647400e-02   1.25375710e-01   3.69969100e-02
C     4.319933545036638e+00   6.807238401988183e-01   7.097760000000000e-02  8.18592920e-01   2.68913730e-01  -3.41953180e-01
C     5.620585070834631e-01   4.446688518227603e-01   1.695939000000000e-01  1.50389825e+00  -3.76769870e-01  -3.16537940e-01
C     1.964063577475460e+00   4.741635256881200e-02   2.292882000000000e-01 -1.78340134e+00   3.21234120e-01  -3.54728410e-01
