26
Lattice="8.88768389401873 1.33226762955019e-15 0 4.44384194700937 7.69696003302603 0 0 0 30 " PBC="1 1 1" Properties=species:S:1:pos:R:3:force:R:3 Energy="-209.0971602"
C     6.594994295318350e-01   7.968923646004017e-01   3.634874400000000e+00  5.90267400e-01  -2.81851718e+00   1.11192750e-01
C     3.056637889938412e+00   1.525458199257691e-01   3.712569900000000e+00 -7.38940200e-02   7.60409310e-01   8.64908800e-02
C     4.420299226209277e+00   5.861331274845375e-01   3.676036200000000e+00  4.25383300e-01  -1.54719966e+00  -9.67021500e-02
C     9.878044420875842e+00   7.240304702322520e+00   3.596766000000000e+00  1.98518440e-01   2.94831586e+00   1.53415470e-01
C     1.125930919266404e+01   7.646477362494436e+00   3.552835200000000e+00 -8.68769880e-01   1.67082860e-01  -1.79812930e-01
C     1.228388805663843e+01   6.680146505851224e+00   3.536468700000000e+00  7.60659210e-01   7.21428900e-02   2.99460470e-01
C     4.764642766273208e+00   7.048746917454296e+00   3.616140300000000e+00 -2.65394470e-01   2.56846319e+00  -3.55592560e-01
C     5.778611602105697e+00   6.096499496456377e+00   3.599749500000000e+00  3.49358050e-01  -1.15658816e+00  -1.71250520e-01
C     7.141681862918720e+00   6.467377130653925e+00   3.676658400000000e+00  8.89782170e-01   3.45892450e-01  -4.28563440e-01
C     8.189143713284020e+00   5.492723628099874e+00   3.601012500000000e+00 -1.44019373e+00  -2.00084700e-02   2.73805480e-01
C     9.524183019029515e+00   5.909755467360515e+00   3.594663000000000e+00  9.09150430e-01  -1.48794247e+00  -1.39251750e-01
C     1.057191269974788e+01   4.933624225450305e+00   3.572100000000000e+00  6.12952570e-01  -1.32482770e-01   2.68997200e-01
C     3.074425659394567e+00   5.320481595335736e+00   3.556131900000000e+00 -1.22734176e+00  -1.12912208e+00  -2.65432770e-01
C     4.085621804446925e+00   4.311327470052014e+00   3.526721700000000e+00 -2.69978260e-01   3.98961040e-01   5.83927330e-01
C     5.444187787077933e+00   4.702890222512585e+00   3.483987300000000e+00  4.61322690e-01   3.29112170e-01   6.22839290e-01
C     6.473615415867853e+00   3.725029011866032e+00   3.518751000000000e+00 -2.37201280e-01  -3.59004760e-01   2.71167770e-01
C     7.846854786841581e+00   4.107366188034646e+00   3.569751600000000e+00 -3.86923860e-01   4.79241710e-01  -4.17754060e-01
C     8.863237517610767e+00   3.143071639136970e+00   3.555765300000000e+00  5.75395370e-01  -1.03653314e+00   3.99713850e-01
C     1.024480762578493e+01   3.558355267865998e+00   3.631772700000000e+00 -7.05457090e-01  -8.50953970e-01  -1.12121430e-01
C     2.372401594108467e+00   2.558865060747942e+00   3.734733300000000e+00  3.39645630e-01  -5.34649650e-01  -4.10465560e-01
C     3.744195472179167e+00   2.948656126948808e+00   3.697776300000000e+00 -1.20964890e-01  -3.23947530e-01  -5.89793470e-01
C     4.788258805532774e+00   1.962586416308660e+00   3.660104100000000e+00 -2.51595514e+00  -5.45390260e-01   2.19320990e-01
C     6.099685357132268e+00   2.340410326024483e+00   3.585189900000000e+00  2.95101089e+00   1.17344100e-02  -6.96929290e-01
C     7.140197838558227e+00   1.321252230880969e+00   3.510072900000000e+00  9.78347100e-02   1.15136839e+00   6.61963440e-01
C     8.521623432985800e+00   1.726469929221963e+00   3.551499000000000e+00 -7.31986460e-01   1.74580054e+00  -5.10593000e-02
C     2.036147671643195e+00   1.150939210239550e+00   3.722334300000000e+00 -3.17220030e-01   9.63815290e-01  -3.75656900e-02
