26
Lattice="8.88768389401873 1.33226762955019e-15 0 4.44384194700937 7.69696003302603 0 0 0 30 " PBC="1 1 1" Properties=species:S:1:pos:R:3:force:R:3 Energy="-208.92434668"
C     1.529252219815311e-01   2.200673248193438e-01   3.682181700000000e+00 -2.74826650e-01  -1.32565642e+00   1.97475950e-01
C     6.998173942564582e+00   7.254671463066518e+00   3.596495700000000e+00 -1.11502973e+00   1.06729385e+00  -5.01983910e-01
C     8.346626718563964e+00   7.630787802199683e+00   3.530830500000000e+00 -1.05031380e-01   2.56074361e+00   4.08456080e-01
C     9.333943701197777e+00   6.662565956416302e+00   3.506888400000000e+00  1.46835198e+00  -3.14652320e-01   1.88691440e-01
C     1.071252936954455e+01   7.053920890956063e+00   3.618531900000000e+00  3.48105110e-01   7.26328640e-01   3.25214000e-01
C     1.179028271300161e+01   6.133522259048678e+00   3.705309300000000e+00 -8.46090410e-01  -1.40273101e+00  -5.65629410e-01
C     4.262322826397398e+00   6.513281030576842e+00   3.733403700000000e+00  3.77465720e-01   6.33086720e-01   1.26726130e-01
C     5.299593925095243e+00   5.532589031970455e+00   3.745278300000000e+00 -7.24662020e-01  -9.78903740e-01  -2.89479900e-01
C     6.652925061886623e+00   5.880404418769315e+00   3.559583400000000e+00 -4.55808390e-01   7.72972030e-01   8.87282010e-01
C     7.649555581770484e+00   4.891339436133493e+00   3.524468400000000e+00 -2.64639850e-01  -1.73540500e-01  -3.20513710e-01
C     8.988833557263943e+00   5.286149766939523e+00   3.471349800000000e+00  1.15314637e+00   9.67350320e-01   1.10138520e-01
C     1.005527501217907e+01   4.374846170881987e+00   3.499889100000000e+00  4.67438560e-01  -1.68107584e+00   2.96187850e-01
C     1.144510226747676e+01   4.739488343820032e+00   3.617520600000000e+00 -6.08272000e-02   2.47511850e-01   4.74448530e-01
C     3.591212036533642e+00   3.753032784573580e+00   3.743297400000000e+00 -5.78568930e-01  -5.69166850e-01  -7.64746090e-01
C     4.970742510106991e+00   4.129986475988412e+00   3.815116200000000e+00 -8.65217970e-01   6.22436200e-01  -5.66327510e-01
C     5.981053086348841e+00   3.139755019060043e+00   3.734544000000000e+00 -1.63866701e+00  -7.07601410e-01  -3.39320680e-01
C     7.300483530552603e+00   3.518027353667213e+00   3.568539900000000e+00  8.48347520e-01   8.52422490e-01   7.26771290e-01
C     8.324568683701909e+00   2.574806003757274e+00   3.616931100000000e+00  5.65897270e-01  -1.49265186e+00  -3.85132420e-01
C     9.690789228534198e+00   2.985765326402246e+00   3.540240000000000e+00  6.07102540e-01  -5.42856390e-01  -1.39140410e-01
C     1.833758845553288e+00   1.992851940721025e+00   3.523415400000000e+00  7.20349290e-01  -8.40424840e-01   7.86967570e-01
C     3.225809088348835e+00   2.362557635784405e+00   3.586504200000000e+00  1.86306200e-02   1.95997540e-01   5.09564470e-01
C     4.256152504072430e+00   1.362605688034150e+00   3.620857800000000e+00 -9.89395270e-01  -6.73055650e-01  -3.46091570e-01
C     5.611064670977145e+00   1.750664014593063e+00   3.677109000000000e+00  1.54366900e-01  -7.12771500e-02   4.63707690e-01
C     6.614241147782594e+00   7.353146831507938e-01   3.718307400000000e+00  3.34143140e-01   8.40394200e-01  -7.31947240e-01
C     7.986020405639312e+00   1.165155880262961e+00   3.688843200000000e+00  2.41985690e-01   6.21498960e-01   3.70415600e-02
C     1.515971308286688e+00   5.791134999371774e-01   3.636749400000000e+00  6.13434100e-01   6.65557570e-01  -5.88360260e-01
