26
Lattice="8.88768389401873 1.33226762955019e-15 0 4.44384194700937 7.69696003302603 0 0 0 30 " PBC="1 1 1" Properties=species:S:1:pos:R:3:force:R:3 Energy="-208.98263432"
C     4.429002627226021e-01   5.592548812421757e-01   3.408839400000000e+00 -7.18520800e-02  -1.86894924e+00   2.66921700e-02
C     7.272645618614950e+00   7.621686223933810e+00   3.375073500000000e+00 -2.69559700e-01  -6.76636210e-01  -6.18185350e-01
C     4.181900926018217e+00   2.932520219941915e-01   3.293148000000000e+00  1.67986420e-01   6.80773530e-01   6.04519270e-01
C     9.626535409388291e+00   6.997086153246542e+00   3.275025300000000e+00  6.38663880e-01   3.82471240e-01   2.83971420e-01
C     1.099154176327055e+01   7.384337530515909e+00   3.355348200000000e+00  1.17105840e+00   1.26041635e+00   1.93794910e-01
C     1.206877619930580e+01   6.467192788461206e+00   3.432908100000000e+00 -4.17898780e-01  -9.76315710e-01  -6.79301850e-01
C     4.559164802778245e+00   6.848506576824231e+00   3.432233700000000e+00 -8.77417860e-01   1.00149273e+00   2.73560570e-01
C     5.572332502770855e+00   5.874657483562915e+00   3.453919200000000e+00 -3.62403170e-01  -1.33676569e+00  -1.04599550e-01
C     6.918392625374163e+00   6.226069659783795e+00   3.332684400000000e+00  2.79992980e-01   1.18198292e+00   8.24451080e-01
C     7.912970801296931e+00   5.241292499641485e+00   3.354382200000000e+00  1.62124247e+00  -8.32055540e-01  -6.25665260e-01
C     9.292108750319912e+00   5.631539071936927e+00   3.287902800000000e+00 -6.83678600e-02   1.27343820e-01  -1.48301760e-01
C     1.035571596726322e+01   4.692957064685070e+00   3.261562800000000e+00 -9.16025480e-01  -9.74102810e-01   6.55054880e-01
C     1.172219261069401e+01   5.084223484184487e+00   3.356504400000000e+00  5.12101340e-01  -3.49873460e-01   5.64178370e-01
C     3.869197991659605e+00   4.102574060719967e+00   3.486962100000000e+00 -3.98447180e-01  -1.48390601e+00  -1.00683820e+00
C     5.254524657151513e+00   4.468534030184749e+00   3.523652400000000e+00 -1.18588344e+00   5.18327800e-01  -6.49195170e-01
C     6.245712714922994e+00   3.471001929698325e+00   3.421062600000000e+00  3.62321850e-01  -1.14249427e+00   3.84195730e-01
C     7.626740229963071e+00   3.836098454186941e+00   3.358432500000000e+00 -2.03937170e+00   1.59836242e+00   5.40714220e-01
C     8.624588051492577e+00   2.880362309085823e+00   3.407797800000000e+00  1.61054990e-01  -2.65776780e-01  -7.32422380e-01
C     9.962114086760806e+00   3.310834810859651e+00   3.333985800000000e+00  1.90290347e+00  -5.84383830e-01   7.16641400e-02
C     2.108176839966419e+00   2.319009390478670e+00   3.362066700000000e+00  1.31327460e+00  -4.76066910e-01  -1.03568270e-01
C     3.504423091639413e+00   2.685204886920369e+00   3.346225500000000e+00  1.97090400e-01   8.48666070e-01   1.03926006e+00
C     4.540642288489298e+00   1.671940661950227e+00   3.388673400000000e+00 -9.72581400e-01   6.04662510e-01  -4.52210190e-01
C     5.900674072379763e+00   2.054110583177389e+00   3.428925000000000e+00 -3.95520700e-02   1.42660396e+00  -1.90112400e-01
C     6.920032577461106e+00   1.077664073784349e+00   3.414192900000000e+00 -3.90088020e-01  -1.27693610e-01  -3.78202870e-01
C     8.277791158468744e+00   1.499427157405831e+00   3.384733200000000e+00  5.02201460e-01  -5.24598300e-02   5.42440060e-01
C     1.817541488053139e+00   9.059391227950270e-01   3.412933500000000e+00 -8.20443510e-01   1.51637654e+00  -3.15893590e-01
