26
Lattice="8.88768389401873 1.33226762955019e-15 0 4.44384194700937 7.69696003302603 0 0 0 30 " PBC="1 1 1" Properties=species:S:1:pos:R:3:force:R:3 Energy="-209.11187624"
C     1.281607656907074e+01   7.120005835229638e+00  -1.260300000000214e-02  7.43502540e-01  -7.28020120e-01  -6.36702060e-01
C     9.115985785595280e+00   6.917285764986707e+00  -1.288382999999982e-01 -1.19925092e+00   1.27235292e+00  -3.77120680e-01
C     1.046103035653151e+01   6.549205590912063e+00  -1.545947999999981e-01 -2.98395870e-01  -1.93451131e+00   3.96361410e-01
C     1.080753079905893e+01   5.158838045624107e+00  -1.462778999999976e-01  2.51350160e-01   1.63530300e-02   5.69649150e-01
C     6.696423875684133e+00   6.324305652768283e+00  -1.338699000000005e-01 -1.65506340e-01   9.15381260e-01   8.88974700e-02
C     8.090536060674523e+00   5.974136073774648e+00  -1.649436000000009e-01 -1.13651121e+00  -2.25205112e+00   2.40071570e-01
C     8.429140418191967e+00   4.565930515738765e+00  -1.515255000000018e-01 -1.10152060e-01   4.19403820e-01   9.39931400e-02
C     9.808439811481744e+00   4.169446711883014e+00  -1.693587000000001e-01 -1.75334155e+00   7.37623900e-01   9.61325800e-02
C     1.007638157173767e+01   2.804337818507907e+00  -1.351817999999980e-01  1.50351247e+00  -2.19437224e+00  -1.84422200e-02
C     4.273542549150372e+00   5.723691772561705e+00  -3.019019999999983e-02  5.58724950e-01   1.21073617e+00   4.44248980e-01
C     5.639332129691839e+00   5.366497409057489e+00  -7.169640000000044e-02  1.34836609e+00  -1.42901503e+00   1.73094340e-01
C     6.013154290135520e+00   3.965617971517361e+00  -2.379660000000072e-02  1.62993340e-01   1.74110880e-01  -1.95396000e-03
C     7.411926154447103e+00   3.573769276991675e+00  -5.173350000000099e-02 -1.11127488e+00   2.20258360e-01  -4.00268080e-01
C     7.729924505748730e+00   2.175276666756851e+00  -6.624539999999968e-02 -4.83724890e-01   3.35377850e-01  -7.35551900e-02
C     9.078577254136247e+00   1.782636339892079e+00  -1.240005000000011e-01  1.61255650e-01   2.51647090e-01   2.63768920e-01
C     3.267808862202574e+00   4.745377980665388e+00   2.432610000000000e-02 -3.57022070e-01  -3.72478060e-01  -1.06901885e+00
C     3.592951711521786e+00   3.358201210157868e+00  -1.724519999999785e-02  4.31420130e-01  -5.25087570e-01   1.81809590e-01
C     4.987666925837008e+00   2.966306564780803e+00   8.000999999999999e-03 -4.57331080e-01   1.46150900e-01  -6.78396690e-01
C     5.327091483274653e+00   1.577210942137805e+00  -1.081187999999997e-01  9.30334100e-02   6.50494030e-01   8.82870860e-01
C     6.702468563918417e+00   1.193539805826392e+00  -7.204890000000219e-02 -7.19921080e-01  -7.99390900e-02  -5.71396200e-02
C     1.145282837731043e+01   7.494490572775646e+00  -5.931480000000278e-02  1.57371902e+00   1.89746571e+00  -1.01757440e-01
C     2.553569608856903e+00   2.353871077603348e+00  -9.701040000000205e-02  1.02759523e+00   1.66748264e+00   1.24372880e-01
C     2.945245348727601e+00   9.973011916855236e-01  -1.109217000000022e-01 -1.55785953e+00  -4.52670860e-01  -4.22594000e-03
C     4.292466780059248e+00   5.988027855115192e-01  -9.171900000000122e-02  1.07373516e+00   1.28398070e-01  -3.46951460e-01
C     5.325960127074671e-01   3.918312224264180e-01  -9.655529999999857e-02 -4.15707810e-01   5.87236870e-01   1.48802660e-01
C     1.893682186484113e+00   1.645225206412500e-02  -1.279901999999993e-01  8.36791140e-01  -6.62328090e-01   6.14586300e-02
