26
Lattice="8.88768389401873 1.33226762955019e-15 0 4.44384194700937 7.69696003302603 0 0 0 30 " PBC="1 1 1" Properties=species:S:1:pos:R:3:force:R:3 Energy="-208.71933446"
C     1.268184739002866e+01   6.877298210360451e+00  -2.089077000000010e-01 -1.57095151e+00   2.87340135e+00  -3.58725030e-01
C     8.849586792934836e+00   6.723666118465648e+00  -7.384169999999912e-02  3.48044450e-01  -2.10532696e+00   4.26435820e-01
C     1.021929037610870e+01   6.308746786854840e+00  -5.946029999999780e-02  1.36371963e+00   1.55376840e-01  -5.84688740e-01
C     1.062388449780535e+01   4.916111640172447e+00  -9.169170000000193e-02 -1.67307278e+00   2.81726760e-01   3.99313210e-01
C     6.451529389640029e+00   6.117373113270534e+00  -2.166473999999994e-01  1.68976729e+00  -6.70499050e-01   5.45648340e-01
C     7.810670982598441e+00   5.708864502699114e+00  -3.759510000000077e-02  6.81868190e-01   4.32216810e-01  -6.88369020e-01
C     8.179004642742978e+00   4.323818019819098e+00  -1.272059999999797e-02 -5.36269760e-01   2.98132840e-01  -3.25112000e-02
C     9.542976425280113e+00   3.938438620198626e+00  -3.481799999999424e-03  1.20832885e+00   1.94745680e-01  -7.61544410e-01
C     9.896335715662433e+00   2.555592313343185e+00  -1.399292999999986e-01  7.21439930e-01   1.71301118e+00   2.55069570e-01
C     4.129976991537379e+00   5.542971230446121e+00  -2.307695999999986e-01 -1.28182446e+00  -2.51947736e+00  -2.51776370e-01
C     5.459164823406006e+00   5.101990146112935e+00  -2.690178000000003e-01  6.51525150e-01   1.88138888e+00   3.87728360e-01
C     5.807659128963726e+00   3.752285332785068e+00  -2.227557000000004e-01  3.75731410e-01  -3.60527260e-01  -1.90134200e-01
C     7.141806332881763e+00   3.311876363490911e+00  -1.082363999999991e-01  1.67967253e+00   2.46249505e+00  -1.63138700e-02
C     7.539871650917859e+00   1.993453766025770e+00  -1.486689000000005e-01 -9.88037950e-01  -2.04342777e+00  -5.42341100e-02
C     8.908365975829369e+00   1.590414230403666e+00  -1.597971000000022e-01 -1.10556591e+00  -1.35610618e+00  -4.95404160e-01
C     3.100495590959629e+00   4.519168250833303e+00  -2.039316000000007e-01 -4.40549350e-01   6.81994900e-01   4.64105100e-01
C     3.430955363846086e+00   3.124772578483247e+00  -2.050316999999993e-01 -1.82391100e-01   2.20628268e+00  -8.14425650e-01
C     4.809334304201589e+00   2.801863168888661e+00  -2.962218000000014e-01 -1.70836710e+00  -3.18803596e+00   9.40735490e-01
C     5.105243650333492e+00   1.382263185163568e+00  -2.036832000000004e-01  1.33954481e+00   6.78008110e-01  -1.97443590e-01
C     6.490490681691904e+00   1.000321709710096e+00  -1.875176999999972e-01  6.72163300e-02  -4.87591840e-01   1.00761590e-01
C     1.125904620587900e+01   7.309746906621982e+00  -1.656881999999982e-01  9.59236320e-01  -8.84271480e-01   2.53459000e-01
C     2.370776080933342e+00   2.204707994641164e+00  -2.363327999999996e-01  9.33786480e-01  -2.36374321e+00   4.55295300e-01
C     2.725253530804634e+00   7.891837821607564e-01  -2.260284000000006e-01  9.56852200e-01   1.25890921e+00   1.78983050e-01
C     4.097098601414634e+00   3.786338608197795e-01  -1.447256999999986e-01 -6.81613840e-01   1.77021093e+00  -4.43049770e-01
C     3.667189912074155e-01   2.060603969567498e-01  -2.852084999999995e-01 -5.25564220e-01  -3.23909880e-01   9.10628060e-01
C     6.188892865669845e+00   7.510381947362386e+00  -2.365391999999993e-01 -2.28252558e+00  -5.84984280e-01  -4.29542770e-01
