64
Lattice="7.10842262195238 0 0 0 7.10842262195238 0 0 0 7.10842262195238 " PBC="1 1 1" Properties=species:S:1:pos:R:3:force:R:3 Energy="-511.53945212"
C     3.123106803364860e-02   7.080990435182931e+00   3.023787922518220e-02 -1.11735992e+00   1.25337055e+00  -1.09959776e+00
C     1.790490601540781e+00   1.758933185824648e+00   7.104791211220347e+00  1.95497860e-01   1.04542674e+00  -1.98792920e-01
C     2.669660524435060e-02   1.796670095492800e+00   1.760781091368944e+00 -8.45765830e-01  -1.03482377e+00   9.81837450e-01
C     1.754888493353869e+00   2.820735830377920e-02   1.764702879212624e+00  3.34696610e-01  -9.74122340e-01   1.24015344e+00
C     9.122373808275780e-01   8.939078155123246e-01   8.681525786755406e-01 -6.36662190e-01  -1.43340070e-01   6.72086280e-01
C     2.625280011902031e+00   2.664378753175721e+00   9.299664976841200e-01  1.52620462e+00   6.19543570e-01  -1.16653261e+00
C     8.629543313819870e-01   2.643828161212849e+00   2.691460777094528e+00  2.22500600e-01   1.64738735e+00  -5.64819020e-01
C     2.647928228295839e+00   8.812511268689622e-01   2.700592683297538e+00 -3.70223920e-01   1.09479046e+00  -1.22541407e+00
C     3.569724020683626e+00   7.088347723678858e+00   5.468744099512460e-02 -1.39912428e+00   1.86165230e-01  -1.69509167e+00
C     5.312881981777292e+00   1.801498846978566e+00   3.006649515581400e-03  8.69444440e-01  -3.90646330e-01   1.23232190e-01
C     3.559501327029578e+00   1.828061316288077e+00   1.825894597989275e+00 -1.18807161e+00  -2.28203461e+00  -1.21481244e+00
C     5.313010715310940e+00   4.884602362291340e-02   1.723292834324040e+00  4.89983280e-01  -1.55138453e+00   3.09056120e+00
C     4.406679296332963e+00   9.174113883999973e-01   9.355367287333781e-01  9.23573680e-01   2.76011300e-02  -1.83046283e+00
C     6.273314539052696e+00   2.708543596166460e+00   9.119123126611655e-01 -1.16893716e+00  -7.58307010e-01  -1.54291452e+00
C     4.479859227689791e+00   2.663380375218742e+00   2.628103548450921e+00  6.69414670e-01  -7.07001720e-01   1.83639991e+00
C     6.219257117554382e+00   8.731168166964438e-01   2.674751292378599e+00  2.58199400e-02   1.06502660e+00   9.58745600e-02
C     5.254986722906440e-02   3.615882278629691e+00   3.982920278212200e-03 -1.36444878e+00  -1.52531850e+00  -1.10918426e+00
C     1.778374934943027e+00   5.307252039978025e+00   7.079618793954177e+00  8.00801820e-01   7.99764600e-02   8.99670680e-01
C     7.090758687378883e+00   5.372263398565307e+00   1.733530171328686e+00 -7.86571380e-01  -1.47853340e-01   1.39172413e+00
C     1.737522616893209e+00   3.540450967660656e+00   1.785423220307662e+00  7.93509070e-01   1.16184949e+00   1.31894110e-01
C     8.964816331745743e-01   4.491697097131556e+00   8.755412153152210e-01 -5.76546300e-02  -1.50393077e+00   4.54715640e-01
C     2.630810080363486e+00   6.162660425327751e+00   9.154318348687798e-01  1.25603172e+00   2.14989422e+00  -5.97742640e-01
C     8.152298035958310e-01   6.275211066207713e+00   2.683886610624466e+00  1.56937783e+00  -1.11301935e+00  -9.37439560e-01
C     2.648447498568230e+00   4.448425569611473e+00   2.653109841880462e+00  5.16508540e-01  -1.34270571e+00   5.66959000e-02
C     3.575833496672838e+00   3.591301495378183e+00   2.218716410267500e-02 -1.29540318e+00  -1.89542848e+00  -1.50951119e+00
C     5.322344287463679e+00   5.331898149633411e+00   7.083624887690130e+00 -1.13554880e-01  -7.68127970e-01   2.78642170e-01
C     3.579723296614727e+00   5.320663927440537e+00   1.801994517287858e+00 -1.40297302e+00  -1.08114630e-01  -5.81284410e-01
C     5.352775444699899e+00   3.531077232920115e+00   1.776719027893698e+00 -2.44943110e-01   1.81648056e+00  -7.85649150e-01
C     4.446579796593964e+00   4.437927069159768e+00   8.629032218233492e-01  8.50856290e-01   1.48311180e-01   1.47746180e+00
C     6.183501538523103e+00   6.225150781832850e+00   8.582113074730182e-01  6.12224560e-01   7.86129780e-01   2.47247380e-01
C     4.414138093103903e+00   6.250327321984140e+00   2.699666384745925e+00  1.47537945e+00  -9.29925900e-01  -1.80767836e+00
C     6.172637736232957e+00   4.494463410878355e+00   2.610239798069956e+00  1.63629641e+00  -1.11460547e+00   2.21105372e+00
C     7.081195015585935e+00   1.707947811330020e-02   3.634396876185743e+00 -3.76738340e-01  -4.68374430e-01  -3.12199668e+00
C     1.707140649941519e+00   1.791550751690328e+00   3.587657575774719e+00  2.75800999e+00  -2.15245013e+00  -4.43040440e-01
C     4.382697966361000e-02   1.732039037515688e+00   5.370180701821873e+00 -5.30858970e-01   4.20829480e-01  -2.47780670e-01
C     1.789306409416516e+00   7.031656418347155e+00   5.328996491519927e+00  2.49013400e-01   2.99691676e+00   7.13454750e-01
C     8.877377757623908e-01   8.202506957450156e-01   4.466265364608208e+00  2.95432120e-01   2.18840711e+00   8.53590590e-01
C     2.723092262574361e+00   2.633049802162595e+00   4.421493817746852e+00 -2.65363363e+00   5.66080910e-01  -1.21997532e+00
C     9.185065830730608e-01   2.646734368716810e+00   6.182388146288133e+00  8.59337200e-01   1.07630634e+00   1.05955753e+00
C     2.696743045943450e+00   9.236230124222582e-01   6.221409476839492e+00 -1.15083577e+00  -2.53644534e+00   5.83276650e-01
C     3.551042161943325e+00   7.100636480367409e+00   3.535118157926906e+00 -1.40196347e+00   1.26147611e+00   1.08682092e+00
C     5.364506048044328e+00   1.755148661621761e+00   3.623641050835195e+00 -5.25489360e-01   3.20567960e-01  -2.45295338e+00
C     3.511802531733306e+00   1.798837666802316e+00   5.318914686802207e+00  1.64120176e+00  -1.71664436e+00   4.01990270e-01
C     5.296509933883134e+00   7.072445329267204e+00   5.373228082599067e+00 -2.30393650e-01   1.87279747e+00  -4.61306650e-01
C     4.364848717162180e+00   8.979837139584064e-01   4.431582446550287e+00  2.97945297e+00  -6.83264140e-01   1.30692570e+00
C     6.304634391284869e+00   2.635722213646584e+00   4.505946641115608e+00 -2.22338314e+00   3.50359400e-01  -1.81369750e+00
C     4.425662338939673e+00   2.656936803366391e+00   6.161259497397802e+00  6.93915870e-01   1.66648560e-01   2.82650936e+00
C     6.242009116918442e+00   8.908585865452493e-01   6.253183912698213e+00 -1.27468584e+00  -7.93650830e-01   1.70735040e-01
C     6.156178325824799e-03   3.585353593835124e+00   3.558992008548855e+00 -7.72868080e-01  -4.51087770e-01  -4.04667610e-01
C     1.747878735639834e+00   5.355964851761041e+00   3.514807261974780e+00  9.86322120e-01   1.99423180e-01   2.06479910e-01
C     1.716186473146600e-02   5.400325602879186e+00   5.343194215103079e+00 -9.43538660e-01  -2.51161593e+00  -5.97391870e-01
C     1.855352398916138e+00   3.526529406296291e+00   5.233069252357968e+00 -1.86341572e+00   1.62844128e+00   2.71228969e+00
C     9.029384266929987e-01   4.488366801134086e+00   4.386538007344550e+00 -6.14292100e-02  -9.42886090e-01   1.51884649e+00
C     2.663514582237808e+00   6.240721710497734e+00   4.421812559417133e+00  8.16400500e-02  -1.88599385e+00   9.89991000e-02
C     8.966010546745902e-01   6.196552460284971e+00   6.241778022099066e+00  6.22765810e-01   6.96799160e-01  -4.44468220e-01
C     2.707189441657350e+00   4.429343648846118e+00   6.201959481950874e+00 -1.41627691e+00   1.05727000e-01  -4.37195680e-01
C     3.604960045105609e+00   3.450881999279608e+00   3.506237916337918e+00 -1.96908192e+00   3.67214992e+00   5.02677180e-01
C     5.321550205572799e+00   5.351066508817825e+00   3.581930248585559e+00 -2.04914690e-01  -1.88027680e-01  -1.39355242e+00
C     3.559181732348583e+00   5.328944671119027e+00   5.304709001785721e+00 -9.21584550e-01  -1.79873635e+00  -8.06571140e-01
C     5.342124752919900e+00   3.471196947032627e+00   5.319887616606207e+00  5.19481900e-01   3.21226768e+00   3.77600000e-03
C     4.410916911393650e+00   4.381923574800777e+00   4.371123961566890e+00  2.15977408e+00   9.40516940e-01   2.06466886e+00
C     6.196334302794763e+00   6.277771022445852e+00   4.487371479798833e+00  1.15351500e-02  -2.14611249e+00  -3.70492120e-01
C     4.402072967390977e+00   6.134601135467148e+00   6.198660036507575e+00  1.67259250e+00   3.32573236e+00   1.38107302e+00
C     6.226537208580655e+00   4.479824254250501e+00   6.219425231749344e+00  2.13739710e-01  -1.48062369e+00  -5.89510020e-01
