64
Lattice="7.10842262195238 0 0 0 7.10842262195238 0 0 0 7.10842262195238 " PBC="1 1 1" Properties=species:S:1:pos:R:3:force:R:3 Energy="-511.18485811"
C     2.391749633683540e-02   2.090473357780080e-02   5.841950503907700e-02 -1.90688312e+00  -3.96977820e-01  -3.30034698e+00
C     1.823659070159511e+00   1.761093008953509e+00   1.009253843587600e-02 -1.57438384e+00  -6.95493480e-01  -5.46724900e-02
C     1.771944940177880e-02   1.858872631966015e+00   1.794779965918142e+00 -7.44640840e-01  -3.32345847e+00  -9.21335800e-02
C     1.720460980920685e+00   7.046259535272326e+00   1.817811894964977e+00  2.33338108e+00   3.47221235e+00  -1.43600185e+00
C     8.760420747730262e-01   8.741833644263486e-01   8.949629897660374e-01  1.02559215e+00   9.24421730e-01   1.77852215e+00
C     2.694273295588358e+00   2.650527067605711e+00   8.797632629303700e-01 -1.43494510e-01   9.20539410e-01  -4.68776670e-01
C     9.064594416693634e-01   2.643252236812176e+00   2.681541613086354e+00 -1.86509100e-01   1.96891950e+00  -3.13604380e-01
C     2.649086048172185e+00   9.407518229885411e-01   2.669495395777597e+00 -4.70272260e-01  -2.22478848e+00   6.82543620e-01
C     3.512927155276016e+00   7.061309416559164e+00   7.095142807029768e+00  1.77389723e+00   1.31384183e+00  -2.95580570e-01
C     5.330384837541839e+00   1.752646212522616e+00   4.369902805645000e-03 -8.22523760e-01   3.59682370e-01   1.02427703e+00
C     3.573057088965918e+00   1.807996656095508e+00   1.782699557096583e+00 -1.15086328e+00  -2.07940150e+00  -4.72897640e-01
C     5.356333636726566e+00   4.329384796711000e-03   1.761107510135654e+00 -5.54584440e-01   2.19651550e-01   1.43422625e+00
C     4.425417311611962e+00   8.396769485020825e-01   9.199707048801021e-01  3.57276480e-01   1.24277064e+00  -1.66535506e+00
C     6.250099852460300e+00   2.627295534051705e+00   8.972722319383706e-01 -1.35129307e+00   2.47672929e+00  -1.37078467e+00
C     4.424839823358313e+00   2.644610727459085e+00   2.635221212020327e+00  2.56316690e+00   1.33268217e+00   1.84503980e+00
C     6.181403985176393e+00   9.773845102869017e-01   2.673855986549610e+00  2.24945738e+00  -2.40142103e+00   3.32970210e-01
C     1.706085404603580e-02   3.531282808502285e+00   7.067654323505550e+00 -4.07568770e-01   3.78067810e-01   1.14160493e+00
C     1.719917968516743e+00   5.288331267153467e+00   5.371977142386400e-02  1.96965398e+00   1.58158795e+00  -2.70416483e+00
C     7.074024962941819e+00   5.330769474289808e+00   1.763556646065149e+00  9.27880640e-01   1.68771960e-01   4.05731520e-01
C     1.805986038757441e+00   3.533036243109960e+00   1.725100150775175e+00 -7.08161620e-01   2.51854280e-01   2.24069328e+00
C     8.531218901297768e-01   4.402236603279689e+00   8.809243526811208e-01  9.57915370e-01   5.34344490e-01   6.26562460e-01
C     2.679639754614373e+00   6.272545620977890e+00   8.743664773930397e-01 -2.47276972e+00  -3.59841147e+00   1.84374295e+00
C     8.625294609619896e-01   6.215743566421768e+00   2.707156671829072e+00 -3.22020240e-01   6.87343520e-01  -1.62036579e+00
C     2.683392646336602e+00   4.452350485161106e+00   2.631659465782350e+00 -2.50654550e-01   2.88178500e-01   1.57973960e-01
C     3.562517359663018e+00   3.590970882642127e+00   7.097191312260399e+00 -5.01804870e-01  -6.72539700e-01   2.84085900e-02
C     5.328573753626716e+00   5.356576247190587e+00   3.955339598446600e-02  5.00508460e-01  -1.18392382e+00  -3.18612336e+00
C     3.559754315790624e+00   5.366475507615425e+00   1.768301020574416e+00 -2.24165210e-01  -1.03847000e-03   8.97257500e-02
C     5.351598503166705e+00   3.554541780567604e+00   1.766411886178924e+00 -4.54308230e-01   6.52586500e-02  -1.87452640e-01
C     4.411001572707054e+00   4.500606438622333e+00   8.762527684194830e-01  1.68706312e+00  -1.87000026e+00   5.14445650e-01
C     6.222999630979586e+00   6.229052523924742e+00   8.507179637681451e-01  9.21191000e-02   5.93697410e-01   2.15864470e+00
C     4.487012646624976e+00   6.211175978383062e+00   2.664937546277879e+00 -2.11884256e+00   7.64322520e-01   1.40010420e-01
C     6.239214156228484e+00   4.480214222315434e+00   2.643786363687843e+00 -1.61984669e+00  -2.01136348e+00   1.06510759e+00
C     3.356618486431860e-02   6.249128060003920e-02   3.587754534659256e+00 -2.57829282e+00  -1.41604883e+00  -1.05648487e+00
C     1.745939984454455e+00   1.780159149020647e+00   3.568681570506403e+00  1.35053390e+00   4.52588590e-01   2.84890880e-01
C     6.034482130570400e-03   1.835533761230447e+00   5.366565926751151e+00 -1.45163220e-01  -2.04201109e+00  -2.78906960e-01
C     1.748264225398517e+00   7.067848525611527e+00   5.293260602819306e+00  5.80520850e-01   5.81105620e-01   3.13789857e+00
C     8.659941061469776e-01   8.919048752706873e-01   4.511096408966893e+00  9.37760220e-01   7.98932390e-01  -1.94445587e+00
C     2.657567960210821e+00   2.731241571518608e+00   4.414024500510435e+00  2.19480495e+00  -3.58509482e+00  -4.17782400e-01
C     9.125861911255414e-01   2.649789071169303e+00   6.235188727583004e+00  1.06310381e+00   5.19588130e-01  -7.53219760e-01
C     2.634936448610170e+00   8.303027161719576e-01   6.242397378961947e+00  1.14504475e+00   1.19107477e+00  -1.82571920e+00
C     3.521024714903589e+00   1.775029995594960e-02   3.582367132239784e+00  1.21674055e+00  -2.43168520e-01  -2.39525003e+00
C     5.319862879295489e+00   1.752390096055617e+00   3.647006720324040e+00  9.75016910e-01   1.90417916e+00  -4.51118943e+00
C     3.575623087363285e+00   1.755067341266988e+00   5.344109495599631e+00 -1.81952488e+00   8.88041200e-02  -5.56497580e-01
C     5.304615739280947e+00   7.096785990002608e+00   5.314147920761688e+00  1.96041299e+00   2.51109200e-02   3.78142740e-01
C     4.458032318445498e+00   8.608198142376534e-01   4.390231046148319e+00 -1.52721828e+00   3.34990550e-01   3.88086643e+00
C     6.235728043607184e+00   2.701621485303330e+00   4.454588643107239e+00 -9.66394440e-01  -1.53339099e+00   5.57051940e-01
C     4.392216428586084e+00   2.659784650720642e+00   6.246094114145477e+00  2.35046881e+00  -6.58332520e-01  -3.28578610e-01
C     6.209889211720389e+00   9.305621124154497e-01   6.226771573274437e+00 -2.61489700e-02  -1.41907298e+00  -6.24002100e-02
C     1.683373994332680e-02   3.563248176592580e+00   3.580290122234446e+00 -9.80036610e-01   7.05720300e-02  -2.01780591e+00
C     1.716923687656520e+00   5.344605236993149e+00   3.526056127518252e+00  2.81939493e+00  -1.76535810e+00   8.60128710e-01
C     3.296907736423860e-02   5.342037745827032e+00   5.312671430299287e+00 -2.05839778e+00  -9.26654500e-01   3.44898510e-01
C     1.837802201056942e+00   3.522425500665087e+00   5.286515420595188e+00 -2.45013093e+00   2.35589064e+00   1.78286407e+00
C     8.687825981723512e-01   4.429025831270778e+00   4.409520035264594e+00  1.91861974e+00   7.93783310e-01   1.52622515e+00
C     2.681978994330163e+00   6.201176062693924e+00   4.445964633700429e+00 -2.17328046e+00   1.24368017e+00  -1.69111158e+00
C     8.321571614650631e-01   6.203050411570366e+00   6.239635543521397e+00  2.35663462e+00   2.37774270e-01  -1.32667090e-01
C     2.678771460791340e+00   4.438431482828884e+00   6.192575297829081e+00 -9.88152190e-01   6.20853860e-01   3.74134190e-01
C     3.656357352691066e+00   3.560832805670530e+00   3.525846997724771e+00 -4.43392594e+00   2.62005720e-01   2.77834530e-01
C     5.295289559887733e+00   5.316574309738798e+00   3.557016222481626e+00  2.77717817e+00   4.12011040e-01   1.40665870e-01
C     3.559354395934022e+00   5.365983746938573e+00   5.258526148697390e+00  1.79893610e-01  -2.90243274e+00   3.01690358e+00
C     5.305926176990943e+00   3.489613661609202e+00   5.346321423466295e+00  1.05569713e+00   3.02061225e+00   3.72909590e-01
C     4.452626149790309e+00   4.418319764878570e+00   4.474110433064319e+00  3.64587140e-01   3.64277110e-01  -1.96236793e+00
C     6.239501620839238e+00   6.218216799903946e+00   4.431234631431491e+00 -7.76365330e-01   6.17009130e-01   1.95898900e-01
C     4.465410647872379e+00   6.164734165458684e+00   6.172372307732326e+00 -1.12028929e+00   2.23250737e+00   1.31712474e+00
C     6.257262014755307e+00   4.440191741522274e+00   6.190360882014499e+00 -1.65502060e+00  -7.09505590e-01   1.12413008e+00
