64
Lattice="7.10842262195238 0 0 0 7.10842262195238 0 0 0 7.10842262195238 " PBC="1 1 1" Properties=species:S:1:pos:R:3:force:R:3 Energy="-512.3884086"
C     7.085820181847865e+00   2.466061083753020e-02   7.426382363792600e-03  1.30650948e+00   6.51333610e-01  -9.96078800e-02
C     1.793225851480731e+00   1.761529537186604e+00   4.059883169918940e-02 -1.02925816e+00  -6.77330020e-01  -1.51408725e+00
C     7.062311775232811e+00   1.859831344924774e+00   1.806211660091400e+00  1.96944071e+00  -2.58428855e+00   1.50906960e-01
C     1.746980231020666e+00   5.610464721287400e-03   1.815291248303925e+00  1.09308374e+00  -2.10239610e-01  -5.76362460e-01
C     8.563951765778344e-01   9.037180074017341e-01   9.421024943705675e-01  4.56893230e-01  -1.38596450e-01  -4.39290850e-01
C     2.725446927567237e+00   2.637628763677494e+00   8.339923429328685e-01 -1.01531114e+00   8.33115180e-01   1.08203546e+00
C     9.523973385142085e-01   2.672245928826180e+00   2.666198367197989e+00 -1.58919813e+00   2.57863470e-01  -5.03753350e-01
C     2.663827992591123e+00   8.939974527215627e-01   2.695578899570973e+00 -4.92264950e-01   2.81435130e-01  -5.97108060e-01
C     3.514783306590551e+00   7.097664591038439e+00   7.095345254905986e+00  1.33123825e+00  -1.23903420e-01  -3.41226010e-01
C     5.355391273139833e+00   1.739403079013103e+00   2.530278573702100e-02 -1.83895080e-01   8.83042370e-01  -6.10419740e-01
C     3.542001101381400e+00   1.779836568802152e+00   1.769676144930254e+00  7.88288610e-01  -6.66436690e-01   7.90726980e-01
C     5.314066031733105e+00   1.263728264960980e-02   1.803419898191621e+00  5.32689880e-01  -1.02460204e+00   1.27997096e+00
C     4.434420910786680e+00   8.310274198580666e-01   9.455185890290607e-01 -1.96983130e-01   1.84305014e+00  -2.51877829e+00
C     6.227324537470047e+00   2.663730607201229e+00   8.893669551426686e-01 -1.07717822e+00   1.37945442e+00  -5.93771600e-02
C     4.398971633686097e+00   2.691019130797148e+00   2.666602694276614e+00  1.27975234e+00  -2.34855030e-01   5.07171620e-01
C     6.175835531232790e+00   9.417507696193297e-01   2.716439845265435e+00  1.14049145e+00  -7.14701190e-01  -1.46205092e+00
C     1.788400938543180e-02   3.574873575282232e+00   7.086692882892922e+00 -7.11664870e-01  -6.83976080e-01   1.58789625e+00
C     1.730563755485133e+00   5.350664811855568e+00   7.093586133560215e+00  1.26499187e+00  -3.73254190e-01   3.52615920e-01
C     7.101351516598754e+00   5.348794728032699e+00   1.758604847783831e+00  6.50202660e-01   4.17225800e-02   1.72926712e+00
C     1.862283963981352e+00   3.536910759943218e+00   1.738017718528692e+00 -2.46032510e+00   1.21180330e+00   1.09440626e+00
C     8.530050276619040e-01   4.475967721726472e+00   9.340460214257379e-01  2.31517374e+00  -1.57968358e+00  -2.89561554e+00
C     2.647781083947605e+00   6.232999120163366e+00   8.562340286370390e-01 -8.61524010e-01  -1.95680860e-01   6.24187410e-01
C     9.077215421055445e-01   6.197035975191583e+00   2.689521883740697e+00 -1.39889664e+00   1.02983877e+00  -5.81305600e-01
C     2.652948409602761e+00   4.494608849205160e+00   2.648897248467397e+00  1.04275263e+00  -2.57165208e+00  -1.39671840e-01
C     3.603573476189351e+00   3.529598965352059e+00   7.056593120319246e+00 -4.22635570e-01   3.37617510e-01   6.38196290e-01
C     5.378260348224444e+00   5.389137230012211e+00   1.795118397919080e-02 -1.88248869e+00  -2.94463943e+00  -1.19930333e+00
C     3.526627431444221e+00   5.332215753956072e+00   1.721222079730608e+00  3.72203160e-01   8.44451860e-01   1.57290686e+00
C     5.313961466836365e+00   3.574951625762600e+00   1.782097402616443e+00  3.76065440e-01  -3.98879760e-01  -9.44601300e-01
C     4.422515084824668e+00   4.437904890881194e+00   8.483244157035388e-01  1.46600889e+00   6.63407300e-01   1.06650410e+00
C     6.239478020876138e+00   6.216334631762622e+00   9.118017766894244e-01 -1.15635868e+00   1.98550958e+00  -5.94532320e-01
C     4.410320656904284e+00   6.220047289812821e+00   2.709866900121399e+00  6.08331890e-01  -5.33170230e-01  -1.68204685e+00
C     6.257733089922334e+00   4.464578180499351e+00   2.624349163959942e+00 -2.06454678e+00  -1.31026398e+00   1.65479744e+00
C     1.657570420222080e-02   3.370529669499200e-02   3.551453881781476e+00 -8.02941340e-01  -8.58187850e-01  -4.07393750e-01
C     1.786965819100428e+00   1.806692900302774e+00   3.559426191002484e+00  2.69461100e-01  -1.59343954e+00   4.59661730e-01
C     3.350199580806000e-03   1.823347010406493e+00   5.276617652939100e+00  2.50962100e-02  -1.18550527e+00   2.28037519e+00
C     1.729036368716774e+00   7.066555432452724e+00   5.284765184777691e+00  1.26753061e+00   1.75093804e+00   1.57343737e+00
C     8.788735727552508e-01   8.794732392874740e-01   4.463101618952725e+00  2.55127750e-01   1.28706864e+00  -1.87155549e+00
C     2.663651277204791e+00   2.659809103694454e+00   4.470509377249253e+00  7.63040150e-01  -1.62697780e-01  -4.75768220e-01
C     8.891849084393704e-01   2.627974743833046e+00   6.274569388897804e+00  3.92013100e-01   1.52254045e+00  -1.67416347e+00
C     2.638483906918681e+00   8.697329942766452e-01   6.169515645934028e+00  4.29330270e-01  -4.56582590e-01   2.06154172e+00
C     3.520268663073726e+00   5.740619939459600e-03   3.597813379171913e+00  1.22885085e+00  -1.69197200e-01  -1.54780281e+00
C     5.290003523574822e+00   1.793636362887036e+00   3.601300486972380e+00  2.37728000e-03  -1.91237940e-01  -1.95188501e+00
C     3.571868276366949e+00   1.724163473926538e+00   5.352823000047226e+00 -3.99293500e-02   1.40599615e+00  -7.30722120e-01
C     5.403379949910548e+00   7.068903842033693e+00   5.322336681451475e+00 -1.68708395e+00   1.63186386e+00  -2.02177380e-01
C     4.467509978324744e+00   8.735936496857933e-01   4.450799640598100e+00 -9.52215390e-01  -5.09692420e-01   1.00039257e+00
C     6.182399377595872e+00   2.683968215316144e+00   4.394341136107203e+00  1.29635910e+00   3.27640000e-04   1.25391457e+00
C     4.499927442093671e+00   2.635071935145306e+00   6.219520768949358e+00 -1.10290298e+00  -1.28778510e-01  -6.83130300e-02
C     6.275625345078006e+00   9.532675516113490e-01   6.189632197611722e+00 -2.01719801e+00  -2.71415952e+00   1.04434761e+00
C     1.387393493281120e-02   3.514300289273522e+00   3.545276804693148e+00 -1.43896690e-01   1.68403521e+00  -9.46616800e-01
C     1.740493297790333e+00   5.266965623452985e+00   3.555404316568314e+00  1.01869808e+00   1.44247259e+00   9.55614300e-02
C     1.049380889277500e-02   5.326994333204778e+00   5.306214850033541e+00 -1.01918100e-01  -8.46564500e-02   1.35161670e-01
C     1.765619652477925e+00   3.497335896522439e+00   5.365261673368834e+00  9.89678290e-01   9.67912860e-01  -1.19286100e-01
C     8.736506592352057e-01   4.360469075817545e+00   4.463579802542372e+00  5.68215020e-01   1.68792863e+00  -8.82925200e-02
C     2.654173261904414e+00   6.214125334012325e+00   4.426838782883283e+00 -1.15958896e+00  -7.03440340e-01   4.68568770e-01
C     8.537359156756924e-01   6.266978659803038e+00   6.204009053444899e+00  5.98104120e-01  -2.20526390e+00   2.35202690e-01
C     2.699651741395328e+00   4.413527977190427e+00   6.206907797105108e+00 -1.94963631e+00   9.38270650e-01  -1.31777940e-01
C     3.574142189678861e+00   3.583381646316111e+00   3.580229842810629e+00 -1.84442940e+00  -2.37502910e-01  -6.30651130e-01
C     5.314547485197158e+00   5.286822717705051e+00   3.563516306293807e+00  9.86482320e-01   2.00058797e+00  -7.82446180e-01
C     3.546291460937927e+00   5.354836460754341e+00   5.297573851496669e+00  8.84782400e-02  -1.19319602e+00   1.54896020e+00
C     5.336892882787354e+00   3.555772675028483e+00   5.313444115838082e+00  1.30873670e-01   3.55616180e-01   9.85973190e-01
C     4.418705396805705e+00   4.460822516492300e+00   4.475111370053441e+00  1.32763467e+00  -9.60606260e-01  -1.28945573e+00
C     6.257922742637836e+00   6.218765427961756e+00   4.389966754995307e+00 -9.12803070e-01  -7.64896360e-01   1.41485429e+00
C     4.454270185773863e+00   6.186246171580912e+00   6.194872455682960e+00  5.20508200e-01   2.00634917e+00   8.97602130e-01
C     6.254323961518009e+00   4.455204445758810e+00   6.205910414327296e+00 -9.01855870e-01   1.49946050e-01   1.11940320e-01
