72
Lattice="7.395 0 0 3.6975 6.40425786098592 0 0 0 13.6 " PBC="1 1 1" Properties=species:S:1:pos:R:3:force:R:3 Energy="-581.95510074"
C     3.658727386425000e+00   6.226337521964360e+00   1.879949760000000e-01  1.15769257e+00   5.88998000e-01  -5.72798430e-01
C     1.239727084200000e+00   5.147432501787577e-01   1.955394400000000e-01 -1.41240804e+00   6.99210820e-01  -4.27238260e-01
C     1.325886635925000e+00   9.297092516225516e-01   3.408696656000000e+00  2.78646170e-01  -6.21335340e-01  -1.47684340e-01
C     2.572975405650000e+00   1.622300215552817e+00   3.519148512000000e+00 -3.63185740e-01  -1.24712430e-01  -3.92491030e-01
C     6.159152073974999e+00   6.221301085498099e+00   7.096221599999999e-02 -2.82011200e-01   5.41784160e-01   4.53468240e-01
C     3.684733087125000e+00   5.176795383649890e-01   1.512088800000000e-01  2.65940180e-01   6.30208520e-01  -7.92663530e-01
C     3.811755560100000e+00   9.135607233008256e-01   3.451799952000000e+00  3.17259060e-01   1.13154600e+00  -3.77169010e-01
C     5.044378970325000e+00   1.640984829987103e+00   3.352230000000000e+00 -2.22772300e-01   1.90681900e-02  -3.42173550e-01
C     8.623148584799999e+00   6.242125362483411e+00   4.822682400000000e-02 -9.67829470e-01  -6.28179760e-01   2.78413720e-01
C     6.120812844374999e+00   5.316218638965234e-01   7.476164800000000e-02  1.73807448e+00   9.96275240e-01   8.13968300e-02
C     6.275679489000000e+00   9.133113414997572e-01   3.244569544000000e+00 -9.63477340e-01   1.38512235e+00   2.58033010e-01
C     7.490887711199999e+00   1.613872596464528e+00   3.341009728000000e+00  7.16597820e-01   1.96642364e+00   4.79565810e-01
C     1.240439814300000e+00   1.947719514022683e+00   2.295620160000000e-01 -1.10615009e+00   4.88506820e-01  -2.27041200e-01
C     2.460095093700000e+00   2.665422917916159e+00   3.480575920000000e-01 -1.99945200e-02  -2.32647040e-01  -1.20186913e+00
C     2.558030813175000e+00   3.034253286162298e+00   3.495103848000000e+00  1.32219115e+00   4.65966100e-01  -4.22282760e-01
C     3.801610433550000e+00   3.752351896808315e+00   3.353436320000000e+00 -9.33480230e-01   8.15513400e-01  -3.82651880e-01
C     3.686359913175000e+00   1.927243756750112e+00   2.137881920000000e-01  1.69779770e-01   1.31372618e+00   3.37644500e-01
C     4.917691601774999e+00   2.663690374037293e+00   9.047930400000000e-02 -4.16819540e-01   6.28641700e-01  -3.19095900e-01
C     5.039787932474999e+00   3.078853818750910e+00   3.271982112000000e+00 -3.16256940e-01  -1.37271536e+00   1.06382604e+00
C     6.258427767450000e+00   3.775768297162462e+00   3.323847888000000e+00  1.36595584e+00   8.78654610e-01   3.79570850e-01
C     6.133571179050000e+00   1.959879534591779e+00   1.359324787200000e+01  1.07000065e+00   2.69960510e-01   6.86795340e-01
C     7.387373277675000e+00   2.693711101266986e+00   5.877988000000000e-02  3.20888400e-01  -1.22464019e+00   1.98494000e-01
C     7.515839957175000e+00   3.076034024015152e+00   3.457141488000000e+00 -1.58855623e+00  -1.39416360e+00  -9.43693960e-01
C     8.742966109274999e+00   3.764531834619356e+00   3.463639296000000e+00 -2.15657360e-01  -5.54850300e-02  -7.82013000e-03
C     2.447103742575000e+00   4.088855236484219e+00   2.774958960000000e-01  3.30940720e-01   5.96879930e-01  -6.94351160e-01
C     3.687393845100000e+00   4.819720350918674e+00   2.337142320000000e-01  1.89375000e-03  -9.43283710e-01  -6.64808050e-01
C     3.771647150700000e+00   5.187732703308356e+00   3.215350624000000e+00  8.82629480e-01   1.21955890e-01   6.63702790e-01
C     5.012941900950000e+00   5.914144360869545e+00   3.307403312000000e+00  3.34421290e-01  -5.09250260e-01   1.24189680e-01
C     4.932315953774999e+00   4.111840374114073e+00   5.924391200000000e-02 -5.04229760e-01  -3.57846020e-01   3.76817430e-01
C     6.162959019975000e+00   4.835292367947842e+00   1.353451015200000e+01 -2.41494440e-01  -1.75228706e+00   8.19515750e-01
C     6.264905528624999e+00   5.215313472335968e+00   3.374598328000000e+00 -3.89869510e-01  -5.59425190e-01  -3.46057350e-01
C     7.510307387925000e+00   5.919663230080400e+00   3.383962336000000e+00 -2.30726640e-01  -1.52307366e+00   3.75438350e-01
C     7.405462446000000e+00   4.113589697148532e+00   2.509064000000000e-03 -5.97480270e-01  -1.57870250e-01  -2.09693920e-01
C     8.626872374025000e+00   4.829875262394383e+00   6.515311200000000e-02  4.60897340e-01  -1.25158860e+00   7.56877850e-01
C     8.737496952150000e+00   5.169455719886859e+00   3.357679656000000e+00 -6.23502900e-02   1.79856186e+00  -5.29083350e-01
C     9.949620313124999e+00   5.934071913669300e+00   3.176012216000000e+00 -5.45060900e-02  -2.70321038e+00   1.24877482e+00
C     7.402742897775000e+00   1.528663689466914e-01   6.597932832000000e+00  6.65087260e-01  -7.65965470e-01   4.96293540e-01
C     1.257801055800000e+00   8.471283318377880e-01   6.708831312000000e+00 -6.47223200e-01  -9.16445800e-02   3.96954100e-02
C     1.135631662500000e+00   5.329068782361324e-01   1.018202773600000e+01 -1.53147630e-01   6.66943610e-01   3.23911640e-01
C     2.339708265150000e+00   1.240400358078882e+00   1.034771830400000e+01  9.27973480e-01   7.42981970e-01  -3.17944130e-01
C     2.482257317100000e+00   1.552718722414860e-01   6.720395664000000e+00 -2.49036980e-01  -1.93821353e+00   6.70252000e-03
C     3.683753508450000e+00   8.705506241091661e-01   6.768902103999999e+00  1.02169396e+00  -8.15096110e-01  -5.42480630e-01
C     3.590863989075000e+00   5.218367983122294e-01   1.030259323200000e+01 -5.82003530e-01   1.24606464e+00  -9.15055830e-01
C     4.816760093850000e+00   1.252477635636427e+00   1.018014468000000e+01  5.78740000e-01   9.31545900e-02   7.41529810e-01
C     4.906802316375000e+00   1.469369227644318e-01   6.584191391999999e+00  9.53406560e-01  -1.55369220e-01   1.03143439e+00
C     6.171123026025000e+00   8.466686982511759e-01   6.612778456000000e+00 -7.68554590e-01  -5.33831500e-01   8.61860000e-04
C     6.044479361925000e+00   5.406149789538498e-01   1.009969034400000e+01  4.28205710e-01  -8.48451140e-01   1.19022970e-01
C     7.293915045825000e+00   1.251325061349363e+00   1.012205636000000e+01 -1.03348410e+00  -5.27262180e-01   7.94040100e-02
C     8.655235674675000e+00   2.249593622512837e+00   6.794748088000000e+00 -3.52860930e-01   1.18043106e+00  -2.69360270e-01
C     2.488991167125000e+00   2.993653877714300e+00   6.814633600000000e+00 -6.31013580e-01   1.34823650e-01   1.38480340e-01
C     2.338836246750000e+00   2.701782067235051e+00   1.038684088000000e+01  1.04403011e+00  -2.23681355e+00  -4.94685190e-01
C     3.577631117250000e+00   3.387172403840425e+00   1.033194244000000e+01  1.07740610e+00   1.71727440e-01  -1.99944230e-01
C     3.696931102650000e+00   2.268685547747018e+00   6.852388695999999e+00  1.17105241e+00   1.60499533e+00  -6.40307480e-01
C     4.957622974875000e+00   3.008221643068442e+00   6.772700856000000e+00 -6.29980710e-01  -2.33011406e+00  -1.88036960e-01
C     4.846968483975000e+00   2.688985655562406e+00   1.025892594400000e+01 -2.09335644e+00  -8.60161270e-01  -3.07957630e-01
C     6.039618295650000e+00   3.397756976975962e+00   1.015089937600000e+01  8.53144690e-01  -6.89414470e-01  -1.38845800e-02
C     6.183433482524999e+00   2.251410510467719e+00   6.705629328000000e+00 -6.36526430e-01   9.98762570e-01   3.01812070e-01
C     7.403273341125000e+00   2.950800810925368e+00   6.765705152000000e+00  9.21094010e-01   7.42816850e-01  -3.63305680e-01
C     7.256912536424999e+00   2.655979135233224e+00   1.013759925600000e+01  1.66638858e+00   7.71750820e-01   5.15637190e-01
C     8.533815283949998e+00   3.365996212885707e+00   1.025360032000000e+01 -2.39420506e+00   1.03739253e+00  -6.09663590e-01
C     9.880721800649999e+00   4.431995052410126e+00   6.722186512000000e+00  2.24011210e-01  -5.20296870e-01  -2.98691010e-01
C     3.736579432125000e+00   5.127904318507971e+00   6.651221576000000e+00 -8.23350570e-01  -1.99990400e-02   8.99996500e-02
C     3.590766855750000e+00   4.796966663167879e+00   1.021493089600000e+01  7.81942710e-01   3.47817930e-01  -1.25509040e-01
C     4.856263000649999e+00   5.532445212836943e+00   1.015918871200000e+01 -1.90212534e+00  -1.13719718e+00   9.23078800e-02
C     4.968362400600000e+00   4.392114970204962e+00   6.687907576000000e+00 -4.90698370e-01   1.12481474e+00   2.72627140e-01
C     6.202928514300000e+00   5.086918669268436e+00   6.684639496000000e+00 -6.94657050e-01   2.00562986e+00  -5.72088300e-02
C     6.050394585449999e+00   4.805657369169056e+00   1.013099088000000e+01  5.90251380e-01   8.76568820e-01   2.86355680e-01
C     7.275883706399999e+00   5.536065283634886e+00   1.013574476000000e+01  7.11746090e-01  -1.35356705e+00   4.39847810e-01
C     7.410836318550000e+00   4.396224966729195e+00   6.707513608000000e+00  4.11841890e-01  -1.00349038e+00   1.12677340e-01
C     8.629329954374999e+00   5.120740131410304e+00   6.638160136000000e+00  4.40618990e-01   4.26483970e-01   2.42740210e-01
C     8.516140087724999e+00   4.795283432074536e+00   1.014605954400000e+01 -1.54025900e-02  -1.02483400e-02   2.60030780e-01
C     9.755099533949998e+00   5.481123283539103e+00   1.013573279200000e+01 -4.44128430e-01   1.75666332e+00   1.74230730e-01
