72
Lattice="7.395 0 0 3.6975 6.40425786098592 0 0 0 13.6 " PBC="1 1 1" Properties=species:S:1:pos:R:3:force:R:3 Energy="-580.91937858"
C     3.714025125825000e+00   6.353810688283258e+00   1.341962442400000e+01 -1.78935134e+00  -9.33733820e-01   1.74202330e-01
C     1.174224059925000e+00   6.745154584610442e-01   1.345229312000000e+01  2.54646213e+00   9.98141000e-03  -3.37153450e-01
C     1.272388987425000e+00   7.859921975823919e-01   3.610063016000000e+00  3.41775200e-01   5.78471100e-01  -4.93007120e-01
C     2.517218067000000e+00   1.500592290244648e+00   3.606592704000000e+00 -3.71167580e-01   5.45686140e-01  -3.17245910e-01
C     6.083548219199999e+00   6.364945323126390e+00   1.340941136800000e+01  3.35451955e+00  -1.23529581e+00   1.50128060e-01
C     3.686874937949999e+00   6.781553184157753e-01   1.347404060800000e+01 -1.05136880e-01  -1.30729676e+00  -6.95207000e-01
C     3.734063172450000e+00   7.898592806059956e-01   3.533670320000000e+00 -1.59974060e-01  -8.33623800e-02  -4.18421200e-02
C     4.935329083499999e+00   1.518450947542729e+00   3.491875072000000e+00  2.20399162e+00  -1.15928560e-01   1.29465160e-01
C     8.659709501775000e+00   6.317938774902355e+00   1.343932225600000e+01 -1.47356930e+00   1.50534889e+00   4.73924100e-02
C     6.211383550575000e+00   6.848649953331186e-01   1.339236540000000e+01 -2.87929552e+00  -1.61858721e+00  -4.49181200e-02
C     6.209994991425000e+00   8.375179103653362e-01   3.511355984000000e+00  1.12066810e-01  -2.06598284e+00  -8.21984000e-02
C     7.471528118850000e+00   1.552846295231431e+00   3.585206432000000e+00 -2.25523659e+00  -3.32651177e+00  -2.26178930e-01
C     8.604076547024999e+00   2.096848870422907e+00   1.344420955200000e+01  9.12840800e-01  -1.18628966e+00   2.48478650e-01
C     2.451564480525000e+00   2.776806987426272e+00   1.356029303200000e+01 -5.37068240e-01   1.07293824e+00  -8.12455130e-01
C     2.537081591625000e+00   2.951955370532368e+00   3.577182704000000e+00 -1.94138001e+00  -7.93221520e-01  -4.17721300e-02
C     3.772550597850000e+00   3.659301104146288e+00   3.506355399999999e+00 -1.04877321e+00  -1.73208926e+00  -2.52837100e-02
C     3.688330569750000e+00   2.126444162802960e+00   1.345135934400000e+01 -2.36984170e-01  -2.67441016e+00   6.99051170e-01
C     4.907449194000000e+00   2.795543860604695e+00   1.335153126400000e+01  7.25836450e-01  -9.59331900e-02  -2.99409620e-01
C     4.979244882600000e+00   2.934858371621577e+00   3.486930520000000e+00  2.62793440e-01   6.28649630e-01   3.08075850e-01
C     6.227033330249999e+00   3.670774332102478e+00   3.538637856000000e+00 -2.22513334e+00  -1.64707261e+00  -1.85645160e-01
C     6.137261579850000e+00   2.091486521274150e+00   1.326026180000000e+01  1.13217600e+00  -6.39562110e-01   8.32082920e-01
C     7.410057772950000e+00   2.769263091880085e+00   1.327407137600000e+01 -2.08923111e+00   8.60107610e-01   4.60166400e-01
C     7.388402181000000e+00   2.910406402771468e+00   3.600906000000000e+00  3.05662332e+00   2.80374604e+00  -2.33459910e-01
C     8.629918152675000e+00   3.639284532162279e+00   3.584051383999999e+00  1.81178216e+00   2.77260930e-01   7.65226300e-02
C     9.818783351250001e+00   4.201667199326797e+00   1.353976968000000e+01  2.18319655e+00  -3.43313700e-01  -3.59497400e-01
C     3.691267567950000e+00   4.919252508705335e+00   1.346091470400000e+01 -3.42262430e-01  -5.70670000e-03  -1.90002290e-01
C     3.740572103549999e+00   5.036278793432687e+00   3.486579096000000e+00 -1.80126650e-01   1.69681773e+00   7.33172000e-03
C     4.939109481450000e+00   5.765058233209876e+00   3.511923648000000e+00  1.81832774e+00   5.51639360e-01   2.71020470e-01
C     4.926002546474999e+00   4.197801781410237e+00   1.331730292000000e+01 -1.13232442e+00   4.26495650e-01   6.51376500e-01
C     6.150625121325000e+00   4.868976971099241e+00   1.327774106400000e+01 -3.37662620e-01   3.13729662e+00   6.00296510e-01
C     6.209001990825000e+00   5.064822762842443e+00   3.532223144000000e+00 -2.56143150e-01   9.59380110e-01  -1.31352100e-01
C     7.453102441050000e+00   5.770851524870031e+00   3.523338943999999e+00 -1.49455317e+00   1.05792572e+00   2.97795580e-01
C     7.373580974099999e+00   4.173377927252133e+00   1.329271602400000e+01  8.69573470e-01   9.69161040e-01   4.42102660e-01
C     8.612597472750000e+00   4.873921890720683e+00   1.344738460800000e+01 -7.83169190e-01   2.02820517e+00  -1.44251630e-01
C     8.656707279675000e+00   5.087860543471907e+00   3.555672264000000e+00  1.01105890e+00  -2.00078096e+00  -4.72421370e-01
C     9.915768776250001e+00   5.744743671107642e+00   3.488137792000000e+00 -7.16369480e-01   2.62569250e+00   3.45459590e-01
C     7.410485684625000e+00   5.277896200356780e-02   6.628222072000000e+00  1.53769110e-01   1.17152600e-02   1.15422624e+00
C     1.250459447700000e+00   7.769830078378368e-01   6.806375952000001e+00  6.60375460e-01  -9.47495710e-01   2.33208580e-01
C     1.183286447550000e+00   6.532081723479313e-01   1.022358892800000e+01 -4.72873420e-01  -1.52101000e+00  -1.19527970e-01
C     2.451436916775000e+00   1.343980583216271e+00   1.019041417600000e+01 -2.64318023e+00   9.09020700e-02   4.25841500e-01
C     2.511000461925000e+00   1.538962376531580e-02   6.952860736000001e+00 -1.47452177e+00   2.60384986e+00  -3.20125640e-01
C     3.728723686650000e+00   7.475156084872476e-01   7.042559536000000e+00  8.35455000e-03   1.17068891e+00  -7.97442090e-01
C     3.626218226925000e+00   6.366324800269435e-01   1.008430860800000e+01  2.21785974e+00  -8.14590280e-01  -1.66717440e-01
C     4.884681541950000e+00   1.323506619135901e+00   1.011840992800000e+01 -1.24251404e+00   9.51606230e-01   8.21300360e-01
C     4.960014000224999e+00   4.715154062198580e-02   6.844938752000000e+00 -9.30690500e-01   4.33717150e-01   3.67365810e-01
C     6.158396194050000e+00   7.420969659119017e-01   6.720450064000000e+00  1.71754122e+00   1.75664603e+00   1.75441780e-01
C     6.092687477850000e+00   6.241418076245352e-01   1.015274040800000e+01  1.17855601e+00   5.94458100e-01  -8.59663300e-02
C     7.323907538925000e+00   1.346071573407561e+00   1.024900936800000e+01  8.87341160e-01  -7.02647210e-01  -3.03122790e-01
C     8.663353166175000e+00   2.203955600150905e+00   6.873803120000000e+00 -1.14104263e+00  -6.75857140e-01  -2.54467010e-01
C     2.474274414600000e+00   2.910202875456677e+00   6.955579920000001e+00  1.32625771e+00   2.83189190e-01   1.27960000e-03
C     2.417750436300000e+00   2.749100951114919e+00   1.029921975200000e+01 -2.73059000e-01   1.37585251e+00  -5.06229880e-01
C     3.647871933150000e+00   3.491830145362759e+00   1.031740118400000e+01 -4.16069130e-01  -1.66803540e+00  -2.76798560e-01
C     3.729157403399999e+00   2.224716346898245e+00   7.065960784000000e+00 -7.39110420e-01  -2.21033102e+00  -7.94144940e-01
C     4.959900634875000e+00   2.897815439690972e+00   6.965764416000000e+00  2.36207100e-02   1.12812944e+00  -5.54313980e-01
C     4.882441892250000e+00   2.741813418010867e+00   1.029884180800000e+01  2.92372720e-01   9.05114160e-01  -8.44277850e-01
C     6.136803681449999e+00   3.452549117437821e+00   1.023968439200000e+01 -1.81731037e+00   1.58819265e+00  -2.14408060e-01
C     6.185810938050000e+00   2.192054759897403e+00   6.812895519999999e+00 -3.47614060e-01  -7.11508880e-01   3.63129290e-01
C     7.409625572175000e+00   2.917288354225245e+00   6.818974856000000e+00  6.96253210e-01  -1.02923492e+00   1.42968130e-01
C     7.335108375675000e+00   2.752029041851089e+00   1.024274656800000e+01  2.85880920e-01   2.95928500e-01  -1.86331600e-01
C     8.544613019249999e+00   3.472665531801867e+00   1.023187445600000e+01  2.31142395e+00   6.47041600e-02  -3.12397820e-01
C     2.504225199900000e+00   4.330466431278188e+00   6.811601752000000e+00 -1.41399704e+00  -5.92856890e-01   1.28699350e-01
C     3.704033667375000e+00   5.016198563125551e+00   6.722611647999999e+00  1.39740469e+00   1.50935541e+00   3.63544770e-01
C     3.614791029225000e+00   4.892912500595520e+00   1.026561592000000e+01  9.98959990e-01   5.33609650e-01  -2.16328480e-01
C     4.840457704125000e+00   5.587616677491849e+00   1.022953063200000e+01  1.98504278e+00   1.82761059e+00  -3.65394630e-01
C     4.942164171075000e+00   4.347944739701964e+00   6.863923671999999e+00  3.49575000e-03  -1.56041738e+00   1.07487370e-01
C     6.166449792750000e+00   5.034035766159801e+00   6.913976024000000e+00  1.35297775e+00  -8.86923860e-01  -4.17045630e-01
C     6.122077980975000e+00   4.917230236200883e+00   1.014613720000000e+01 -6.46246060e-01  -1.46973023e+00   2.58349670e-01
C     7.356078525075000e+00   5.619747479601255e+00   1.000624107200000e+01 -3.46958690e-01  -3.13977200e-01   9.03777590e-01
C     7.425016563824999e+00   4.313379166839343e+00   6.877131040000000e+00 -1.83265290e-01   1.35104937e+00   6.14740900e-02
C     8.673390806399999e+00   5.053143766081211e+00   6.824574928000000e+00 -1.12807210e+00  -1.59078190e+00   5.44890100e-02
C     8.611178076449999e+00   4.901297659454196e+00   1.007531887200000e+01 -1.96730363e+00  -2.69918110e-01   3.85402920e-01
C     9.814249698599999e+00   5.632496627850894e+00   1.013139752000000e+01 -2.93243110e-01  -1.36301005e+00   2.55105500e-01
