72
Lattice="7.395 0 0 3.6975 6.40425786098592 0 0 0 13.6 " PBC="1 1 1" Properties=species:S:1:pos:R:3:force:R:3 Energy="-581.62781533"
C     3.686152409475000e+00   6.249886490456209e+00   1.929521760000000e-01 -1.49204666e+00  -1.07817210e+00  -8.99304800e-01
C     1.157440848600000e+00   5.558400132921636e-01   1.612092320000000e-01  3.25300284e+00  -7.18098830e-01  -2.20566600e-02
C     1.335361183875000e+00   9.025952889503550e-01   3.395102368000000e+00 -8.03219420e-01   5.41375510e-01  -3.64536300e-02
C     2.585948639025000e+00   1.575664858114347e+00   3.461477168000000e+00 -7.48633980e-01   1.97552898e+00  -4.61016470e-01
C     6.109396480350000e+00   6.238471349118809e+00   9.508521600000000e-02  1.39331010e+00  -6.83969540e-01   3.10664900e-02
C     3.676677528750000e+00   5.373896025678180e-01   1.510511200000000e-01  5.22437700e-01  -2.92671510e-01  -7.47377970e-01
C     3.810108138975000e+00   9.078004135686486e-01   3.403898712000000e+00  5.40839430e-01   2.16965020e-01   3.83104700e-02
C     5.021983878374999e+00   1.663401525689304e+00   3.367705848000000e+00  1.21043250e+00  -7.38498670e-01  -6.18454080e-01
C     8.645426724825001e+00   6.210746996629976e+00   9.660256800000000e-02 -8.63187160e-01   1.53998237e+00  -2.15162960e-01
C     6.188419228500000e+00   5.970561517720800e-01   8.265345600000000e-02 -2.11300928e+00  -2.16730370e+00   4.69005380e-01
C     6.274653136950000e+00   9.651256301418734e-01   3.289239424000000e+00 -4.04183740e-01  -1.84778760e+00   3.07487210e-01
C     7.509446683874999e+00   1.685896865678025e+00   3.365348696000000e+00 -6.26093390e-01  -3.16447071e+00  -7.55491800e-02
C     1.206952776975000e+00   1.959416442705922e+00   1.939810160000000e-01  6.98775980e-01  -1.89184400e-02  -3.98467090e-01
C     2.465701797825000e+00   2.643032671798919e+00   2.639915040000000e-01 -8.18997330e-01   1.03546439e+00  -6.74217670e-01
C     2.587602530775000e+00   3.045890847375176e+00   3.421916264000000e+00 -1.16619924e+00  -1.21609143e+00   2.01126000e-01
C     3.813571328400000e+00   3.757648089973378e+00   3.354335824000000e+00 -6.80462880e-01  -6.00416900e-01  -4.56229570e-01
C     3.699710513400000e+00   1.992743111885526e+00   1.576343360000000e-01 -7.50473890e-01  -2.18728385e+00   6.64437580e-01
C     4.894964252475000e+00   2.707629731044439e+00   1.094062880000000e-01  1.58877902e+00  -1.48010540e+00  -6.17040120e-01
C     5.053951760850000e+00   3.079324980001671e+00   3.287184192000000e+00 -2.50169330e-01  -1.03944500e-02   1.08140585e+00
C     6.287854432125000e+00   3.809824283227162e+00   3.348010056000000e+00 -1.45998503e+00  -7.71611460e-01   1.05944900e-02
C     6.149906808000000e+00   2.000964641955880e+00   3.230476000000000e-02  8.88035700e-02  -3.75259040e-01   2.50750500e-01
C     7.405295245050000e+00   2.665798719767384e+00   4.325507200000000e-02 -9.77665840e-01   9.45832030e-01   6.79322440e-01
C     7.466882284050000e+00   3.054566375285225e+00   3.429109168000000e+00  1.61315835e+00   1.71796599e+00  -3.08660420e-01
C     8.709956456175000e+00   3.738244789722043e+00   3.430007992000000e+00  1.44930360e+00   1.01478354e+00  -3.71419200e-02
C     2.453869871775000e+00   4.069532181583869e+00   2.489947840000000e-01  2.76656510e-01   3.20453660e-01  -9.44719770e-01
C     3.677531096625000e+00   4.796900635269343e+00   1.956793840000000e-01  5.56273320e-01   5.61840570e-01  -2.16621470e-01
C     3.766299197625000e+00   5.148665257383048e+00   3.261578928000000e+00  3.61075900e-01   1.28905683e+00   4.80766230e-01
C     4.969500010425000e+00   5.885319884965521e+00   3.329770416000000e+00  2.17516785e+00   5.58768640e-01   1.07926740e-01
C     4.926053904750000e+00   4.082530455464261e+00   7.285220800000000e-02 -6.82421610e-01   1.77695598e+00   2.60524540e-01
C     6.175007878350000e+00   4.770587268872225e+00   1.358165156000000e+01 -1.28968765e+00   2.26738169e+00   9.86381750e-01
C     6.264137742750000e+00   5.226400587585778e+00   3.379482224000000e+00 -7.58118930e-01  -6.74092530e-01  -2.81658680e-01
C     7.511586575024999e+00   5.898613203005524e+00   3.378054224000000e+00 -6.70095130e-01   5.34731370e-01   3.14131770e-01
C     7.397055588150000e+00   4.086566931108262e+00   5.801855200000000e-02  3.21356760e-01   5.86817200e-02  -7.44057080e-01
C     8.628757840199999e+00   4.785200248286859e+00   6.712769600000000e-02  2.95308030e-01   7.44568070e-01   1.11269071e+00
C     8.723077959299999e+00   5.186195425251642e+00   3.372632856000000e+00  2.17396130e-01  -1.23594406e+00  -3.39722910e-01
C     9.950248037700000e+00   5.869241034969312e+00   3.249159408000000e+00 -4.87730800e-02   2.20484778e+00   7.27044270e-01
C     7.396144930874999e+00   1.387431871731906e-01   6.634507312000000e+00  4.54308810e-01   7.81649000e-03   3.41791240e-01
C     1.247498748525000e+00   8.463570670637082e-01   6.710008255999999e+00  3.24756090e-01  -5.96779050e-01   1.33679370e-01
C     1.114776209550000e+00   5.633410643532673e-01   1.016564504000000e+01  5.36107820e-01  -1.04763558e+00   5.59606640e-01
C     2.393357511150000e+00   1.277866291241140e+00   1.026858153600000e+01 -2.27770691e+00  -1.33236758e+00  -2.27227160e-01
C     2.487156837375000e+00   8.409232463972341e-02   6.744894567999999e+00 -3.16731510e-01   2.80850609e+00   5.13928700e-02
C     3.701606184675000e+00   8.614648394406055e-01   6.792131720000000e+00 -7.21906610e-01   4.17566010e-01  -4.40850760e-01
C     3.591028601775000e+00   5.661441439760106e-01   1.023716662400000e+01  7.07938420e-01  -1.25406491e+00  -8.12922070e-01
C     4.815136965299999e+00   1.238624969714933e+00   1.015135266400000e+01  3.90698510e-01   8.00542090e-01   7.85882450e-01
C     4.899507703499999e+00   1.376828341993104e-01   6.643169424000000e+00  6.65591220e-01  -2.12942120e-01   7.18760930e-01
C     6.131527127099999e+00   8.107845527377597e-01   6.651238304000000e+00  1.27986072e+00   1.24060709e+00   3.22351000e-02
C     6.042455979000000e+00   5.080080202725529e-01   1.012561616000000e+01  8.21609500e-02   1.59415015e+00   1.03671270e-01
C     7.264563070650000e+00   1.228504321018775e+00   1.016130976800000e+01  6.05648670e-01   5.64994010e-01  -2.22128430e-01
C     8.666385338025000e+00   2.279637661241141e+00   6.766805392000000e+00 -2.26766250e-01  -8.26730590e-01  -2.69651720e-01
C     2.468243976975000e+00   3.034665720368482e+00   6.769342744000000e+00  9.81097730e-01  -9.73103730e-01   6.26937100e-01
C     2.366363727525000e+00   2.659223532265100e+00   1.030604681600000e+01 -8.99377790e-01   2.01405863e+00  -4.95958660e-01
C     3.593441849100000e+00   3.401291614974053e+00   1.026711572800000e+01 -2.08353830e-01  -9.26832060e-01   2.12073400e-02
C     3.709103531475000e+00   2.330933204996596e+00   6.844579848000000e+00 -8.18884300e-02  -2.19717616e+00  -7.55453360e-01
C     4.968313001999999e+00   2.972758769637057e+00   6.780141688000000e+00 -9.32212000e-01   1.34666282e+00  -1.44921080e-01
C     4.818088161900000e+00   2.663220365552947e+00   1.023445818400000e+01  5.61414490e-01   8.50436390e-01  -4.49829590e-01
C     6.074602117950000e+00   3.384187507337037e+00   1.017870348800000e+01 -1.46552322e+00   6.99215800e-01  -3.25707420e-01
C     6.162106265549999e+00   2.234556745270450e+00   6.721500800000000e+00  1.08133107e+00   3.29457130e-01   2.27091820e-01
C     7.433820939900000e+00   2.953611063316914e+00   6.758715568000000e+00 -1.10542357e+00  -7.05154000e-01  -2.01088960e-01
C     7.268421411900000e+00   2.658612886278149e+00   1.014905752800000e+01 -5.01820200e-02  -3.02013830e-01   5.14692380e-01
C     8.466099121050000e+00   3.365395877753910e+00   1.022327232000000e+01  2.97810426e+00   5.31069440e-01  -4.14480640e-01
C     9.889161677175000e+00   4.440576181559319e+00   6.742950856000000e+00 -5.58030800e-02  -2.56549130e-01  -6.08069760e-01
C     3.737641058325000e+00   5.119665368856238e+00   6.673486952000000e+00 -4.33977110e-01   6.95442060e-01   2.39602330e-01
C     3.588773163750000e+00   4.819929898235853e+00   1.020025908000000e+01 -3.26996520e-01  -4.17956640e-01   1.17039620e-01
C     4.788782405475000e+00   5.515600541685835e+00   1.017774768000000e+01  2.68985745e+00   1.26167566e+00  -2.83996470e-01
C     4.957381565099999e+00   4.429804668136848e+00   6.717652408000000e+00  5.97085730e-01  -1.67616467e+00   1.59440170e-01
C     6.198937173975000e+00   5.100193607088380e+00   6.720226616000000e+00  5.27877270e-01  -1.06897665e+00  -4.41670000e-03
C     6.085718836574999e+00   4.828628993814826e+00   1.013248905600000e+01 -1.29077062e+00  -7.27009080e-01   5.26364880e-01
C     7.315859671349999e+00   5.541697444167284e+00   1.012704892000000e+01 -6.04282500e-01  -3.73787580e-01   2.60508910e-01
C     7.448238749550001e+00   4.346238197110010e+00   6.741571272000000e+00 -7.25634230e-01   2.24585613e+00  -2.18703980e-01
C     8.662303002224998e+00   5.122388587383468e+00   6.673188024000000e+00 -1.36226625e+00  -6.07259520e-01   3.73424540e-01
C     8.540508424500000e+00   4.799885980070782e+00   1.012320474400000e+01 -1.21479853e+00  -4.51054100e-02   5.81572110e-01
C     9.757954410675000e+00   5.533994210685541e+00   1.015634821600000e+01 -1.77641710e-01  -1.86100445e+00  -8.27678600e-02
