26
Lattice="8.88768389401873 1.33226762955019e-15 0 4.44384194700937 7.69696003302603 0 0 0 30 " PBC="1 1 1" Properties=species:S:1:pos:R:3:force:R:3 Energy="-207.20981307"
C     9.260655554669821e-02   1.574177647159582e-01   3.512060400000000e+00  1.01778082e+00  -1.05971417e+00   2.40250800e-02
C     6.915345083641546e+00   7.203343053592857e+00   3.702380400000000e+00  1.05922871e+00   1.56166645e+00   2.63854710e-01
C     8.288704616109900e+00   7.598663000122473e+00   3.764872800000000e+00  7.87028540e-01  -1.91976823e+00   1.98332580e-01
C     9.345566880815101e+00   6.572112436687746e+00   3.858001200000000e+00 -3.31482120e-01   4.39493750e+00  -2.41434537e+00
C     1.069001571084257e+01   7.038973856395405e+00   3.506500800000000e+00 -9.44597330e-01   3.85725960e-01   1.46176228e+00
C     1.168120776808902e+01   6.067949778373900e+00   3.426299700000000e+00  3.49761627e+00   1.13081024e+00   1.45302850e-01
C     4.246392808379449e+00   6.445501446613461e+00   3.369926400000000e+00 -1.11841327e+00   6.60760740e-01   1.16667270e+00
C     5.317608682588517e+00   5.452073519154234e+00   3.527214900000000e+00 -3.45404485e+00   1.19671977e+00  -1.76400349e+00
C     6.617548613780619e+00   5.838705214171587e+00   3.624069300000000e+00  1.49267772e+00   4.32248010e-01   7.36082160e-01
C     7.641838672455101e+00   4.854067830823421e+00   3.697282500000000e+00 -1.96274078e+00   1.16080990e+00  -6.21197830e-01
C     8.958117721725317e+00   5.263387700982004e+00   3.750311100000000e+00  1.43184778e+00  -1.15556403e+00   8.07827550e-01
C     9.962351744069956e+00   4.299020261872845e+00   3.756804600000000e+00  2.89970573e+00  -4.89408080e-01  -3.03309370e-01
C     1.140186141899445e+01   4.742459755239614e+00   3.617621100000000e+00 -2.10584451e+00  -3.23504119e+00  -4.48680210e-01
C     3.560298361175683e+00   3.767304333922006e+00   3.479799000000000e+00  1.96579850e-01  -1.90800670e+00   2.04096420e-01
C     4.967622488670402e+00   4.119204728317588e+00   3.350021400000000e+00 -1.62783443e+00  -2.24725651e+00   2.31421843e+00
C     5.934475490207960e+00   3.054480244948472e+00   3.574564800000000e+00 -1.36086229e+00   1.98434531e+00  -2.69865884e+00
C     7.276176559447732e+00   3.524661286547470e+00   3.545571000000000e+00 -4.81227900e-02  -2.30232935e+00   1.25128812e+00
C     8.269419449734357e+00   2.526783284677298e+00   3.628413000000000e+00  6.36857030e-01  -2.70218540e-01  -3.40773500e-02
C     9.616853830488127e+00   2.922794495187208e+00   3.776941500000000e+00  1.40741243e+00   6.72505600e-02  -1.02729193e+00
C     1.779223883872149e+00   1.966926962978379e+00   3.677471100000000e+00  2.49694811e+00  -1.48103036e+00   4.98682560e-01
C     3.231700733984603e+00   2.339601606434131e+00   3.594816600000000e+00 -1.94381007e+00  -5.67116160e-01   4.37353200e-02
C     4.217705405553303e+00   1.216926172211943e+00   3.606905700000000e+00 -8.51116280e-01   4.59192102e+00  -6.99217550e-01
C     5.559930403756908e+00   1.684826758493253e+00   3.412558500000000e+00  4.37205540e-01  -2.21232200e-02   2.12427293e+00
C     6.599439643478506e+00   7.474738018189857e-01   3.492352500000000e+00 -3.46557770e-01  -1.47816731e+00  -7.45770470e-01
C     7.955223603307784e+00   1.153687717696662e+00   3.512835000000000e+00  5.24203500e-02  -6.28752940e-01   9.39440700e-02
C     1.486631419511561e+00   5.287485189504727e-01   3.671459700000000e+00 -1.31788237e+00   1.19730133e+00  -5.77545340e-01
