26
Lattice="8.88768389401873 1.33226762955019e-15 0 4.44384194700937 7.69696003302603 0 0 0 30 " PBC="1 1 1" Properties=species:S:1:pos:R:3:force:R:3 Energy="-206.56518967"
C     1.421002540533258e+00   1.739372882107454e+00   3.960210000000000e+00 -9.15250570e-01  -1.50288340e-01  -2.34507685e+00
C     3.820976349903502e+00   1.170577234060092e+00   4.007233200000000e+00 -9.91389060e-01  -2.33714057e+00  -2.25992956e+00
C     5.131859686278960e+00   1.571986630517442e+00   3.665115600000000e+00 -2.77670910e-01  -3.49100247e+00  -3.94240140e-01
C     6.090359109329534e+00   5.682915741349975e-01   3.290600700000000e+00  2.20552918e+00  -9.41613040e-01   2.18230938e+00
C     7.527501238498894e+00   8.853533722859911e-01   3.401251500000000e+00 -8.59041900e-01   2.49117488e+00   6.75839120e-01
C     1.300723798493507e+01   7.643365943371909e+00   3.622075500000000e+00 -4.47886200e-02   5.75115420e-01  -1.38171607e+00
C     1.037184755729756e+00   3.753621909894277e-01   3.841394100000000e+00  5.09640900e-02  -9.95340740e-01   8.42566840e-01
C     6.482779819937660e+00   7.022238971958978e+00   3.933007500000000e+00  5.96866000e-01   2.21474601e+00  -1.26391870e-01
C     7.835204901842172e+00   7.442863983070424e+00   3.871518900000000e+00  2.63351608e+00  -1.25071500e-01   4.87572610e-01
C     8.885273509855610e+00   6.411563779540384e+00   3.666654900000000e+00 -7.38500230e-01   1.23064957e+00  -1.12922410e-01
C     1.025511911878036e+01   6.862277208013905e+00   3.413134200000000e+00 -1.02632310e+00  -1.06891192e+00  -5.71858300e-02
C     1.129444327243738e+01   5.851700992395039e+00   3.370754400000000e+00  4.61724210e-01   6.50819170e-01  -1.34867700e-01
C     3.811153907173284e+00   6.270448176167966e+00   3.416589600000000e+00 -2.40897864e+00   9.92753170e-01   1.27533564e+00
C     4.792481835174463e+00   5.353768561407877e+00   3.655170600000000e+00  1.45086279e+00  -3.78322345e+00  -1.65295180e-01
C     6.150130875416856e+00   5.681162681733542e+00   3.889082399999999e+00  6.41537990e-01  -1.86642228e+00  -1.93302324e+00
C     7.174178700209070e+00   4.607473395078284e+00   3.655024200000000e+00 -9.17726840e-01   3.07858447e+00   2.05301751e+00
C     8.522530601018770e+00   5.018179102890269e+00   3.651676500000000e+00  2.47451831e+00  -2.82759310e-01  -7.37076330e-01
C     9.637922263594845e+00   3.987738803734780e+00   3.581857200000000e+00 -2.09755070e+00   5.00756030e+00  -2.96458870e-01
C     1.100032074887762e+01   4.445715160662209e+00   3.493509000000000e+00 -2.51305334e+00   1.74049806e+00   1.09129495e+00
C     3.085660890517393e+00   3.547934892468582e+00   3.824755800000000e+00  3.43554679e+00  -1.62956670e+00  -2.34999440e+00
C     4.477348204746853e+00   3.926202916778136e+00   3.604724700000000e+00 -1.30069483e+00   3.77355750e-01   1.81607371e+00
C     5.446578039604973e+00   2.888968895852168e+00   3.645876600000000e+00  6.93281640e-01   3.22033937e+00   2.08083330e-01
C     6.801068974729640e+00   3.273824440372997e+00   3.690078900000000e+00  1.46987560e+00  -1.07861233e+00  -1.69724971e+00
C     7.855997501651660e+00   2.307593952088577e+00   3.565018500000000e+00 -5.79983970e-01  -1.33461501e+00   1.34031810e-01
C     9.220737891600976e+00   2.706339584618745e+00   3.649618500000000e+00  1.71509654e+00  -2.98276707e+00   1.28483906e+00
C     2.830804554330254e+00   2.143219136110302e+00   3.886119000000000e+00 -3.15836649e+00   4.87738580e-01   1.94046420e+00
