32
Lattice="9.804 0 0 4.902 8.49051305870264 0 0 0 30 " PBC="1 1 1" Properties=species:S:1:pos:R:3:force:R:3 Energy="-258.01206703"
C     6.956730918248949e-04   3.304774135352416e-04   2.999384904617305e+00 -3.94053500e-02  -2.86952500e-02   1.12455600e-02
C     1.226132543944257e+00   7.070846064611195e-01   3.001071668763204e+00 -5.29067500e-02   8.03615300e-02  -1.26346500e-02
C     2.449879563213912e+00  -1.449344843935493e-04   3.001011582332631e+00  8.02181900e-02   1.56755500e-02  -1.45903000e-02
C     3.676389714605290e+00   7.075622019609512e-01   2.998982609397202e+00 -3.35265700e-02  -1.19590000e-04   2.20988800e-02
C     4.901819483337902e+00   6.022522682096805e-04   3.000899716500642e+00 -2.02186900e-02  -3.24131600e-02  -1.87507200e-02
C     6.127067804941734e+00   7.065723412397011e-01   3.000740466822838e+00  6.54787000e-03   5.65093400e-02  -1.05980600e-02
C     7.352742233107440e+00   3.131595842619991e-04   2.998862707920363e+00 -6.92137000e-03  -7.69683800e-02   2.17480600e-02
C     8.578009574140403e+00   7.064340529331357e-01   2.999686789351703e+00  2.50471000e-02   7.50953200e-02  -1.47914900e-02
C     1.224917679646446e+00   2.123830544407576e+00   2.999743001248201e+00  1.51110500e-02  -1.15216510e-01   6.39521000e-03
C     2.450528278732631e+00   2.829487438452733e+00   2.999985355336241e+00 -1.36216100e-02   6.00312800e-02  -1.20396700e-02
C     3.675416352089766e+00   2.122112819475483e+00   2.999350363407423e+00  8.28859900e-02   3.37091700e-02   7.72276000e-03
C     4.903135867947052e+00   2.830454536230458e+00   3.000888693308760e+00 -1.14127450e-01  -6.48751000e-02  -8.52088000e-03
C     6.126495298962947e+00   2.121767936473431e+00   3.000422981235993e+00  9.43525000e-02   1.41559200e-02   1.12911900e-02
C     7.354174009207716e+00   2.829002440378590e+00   3.000999311159072e+00 -1.36827200e-01   8.98448900e-02  -1.76771700e-02
C     8.577416783776046e+00   2.123254900655084e+00   2.998932841654198e+00  6.60777400e-02  -1.05793730e-01   1.54675400e-02
C     9.803401302621754e+00   2.829361228198252e+00   2.999252757004322e+00  1.59959000e-02   6.54520100e-02  -3.05880000e-04
C     2.450035670842023e+00   4.245307484661871e+00   2.998789809623298e+00  9.72512500e-02  -1.90934200e-02   1.11368800e-02
C     3.677212273091379e+00   4.951913764717961e+00   2.999037112873309e+00 -7.55375400e-02   4.51370300e-02   1.19718300e-02
C     4.901827452451990e+00   4.244567731873765e+00   3.000823172587934e+00  1.12463000e-03   8.27228000e-03  -8.32903000e-03
C     6.126288898938843e+00   4.951937323659201e+00   3.000486140758065e+00  5.41555500e-02   4.26460200e-02  -2.32969000e-03
C     7.352136291876534e+00   4.246165322249560e+00   3.000034280217561e+00  3.49360500e-02  -1.12937060e-01   9.92130000e-03
C     8.578315685428016e+00   4.951620275738354e+00   2.999986092844987e+00  2.78821500e-02   7.27085600e-02  -4.85906000e-03
C     9.805094675739831e+00   4.244878593552556e+00   2.999772863116616e+00 -6.29951600e-02  -8.75529000e-03  -7.42510000e-04
C     1.103030619868190e+01   4.953323835980439e+00   2.999967087411461e+00 -6.20016500e-02  -4.57612300e-02  -4.42671000e-03
C     3.675844956527394e+00   6.368306357421528e+00   3.000192782626691e+00  2.87754200e-02  -5.38547100e-02  -8.50450000e-03
C     4.901873493335160e+00   7.075615082170557e+00   2.999536999265935e+00  1.90700800e-02  -1.75041700e-02   3.00812000e-03
C     6.127872726907057e+00   6.366882213951131e+00   2.999674633614618e+00 -3.70154500e-02   5.23793100e-02   3.65562000e-03
C     7.353176891578437e+00   7.076189107347425e+00   2.999918095865678e+00 -2.10533400e-02  -8.14204700e-02   2.91633000e-03
C     8.578804638667583e+00   6.368026137380976e+00   2.999588858247740e+00 -2.89408900e-02  -1.52386500e-02  -1.27874000e-03
C     9.803110814074717e+00   7.076418101029560e+00   2.999335214345160e+00  4.11560600e-02  -5.89062400e-02   1.54939500e-02
C     1.102879508171352e+01   6.367095042070086e+00   3.000380544373768e+00 -8.63510000e-03   7.23495500e-02  -4.18035000e-03
C     1.225389959744385e+01   7.074426265266613e+00   3.000494748142961e+00  2.31465800e-02   5.32251900e-02  -9.51384000e-03
