32
Lattice="9.948 0 0 4.974 8.6152207168476 0 0 0 30 " PBC="1 1 1" Properties=species:S:1:pos:R:3:force:R:3 Energy="-257.92285904"
C    -5.590137592040732e-04   3.462669024211456e-04   3.000308137341078e+00  5.33399800e-02  -6.83709000e-02  -4.15582000e-03
C     1.244191491218293e+00   7.178806280851673e-01   3.001141865973211e+00 -4.17232900e-02  -1.18199100e-02  -1.99000300e-02
C     2.488237118872087e+00   8.269605185653084e-04   2.999263462644286e+00 -7.43285600e-02  -4.98142800e-02   1.05272200e-02
C     3.729589882353674e+00   7.182211010894497e-01   3.000231258812261e+00  8.13773900e-02   3.17628300e-02  -2.93302000e-03
C     4.974360069087467e+00   1.215447962642258e-03   2.999590049417086e+00 -1.20238200e-02  -5.74329200e-02   3.11428000e-03
C     6.218267286317049e+00   7.183601251453912e-01   3.000094854327267e+00 -5.88763700e-02   5.45343000e-03   8.55169000e-03
C     7.459929368366794e+00  -1.020910435210886e-03   3.000924647432936e+00  7.38211800e-02   6.03996300e-02  -1.12884600e-02
C     8.704718940708634e+00   7.168819781697744e-01   2.999612296398473e+00 -3.02341800e-02   3.26038700e-02   6.74140000e-03
C     1.243167595149229e+00   2.152591195561301e+00   2.999855337577492e+00 -1.88524300e-02   7.85374500e-02   5.51467000e-03
C     2.485889660696140e+00   2.872169466145879e+00   2.998836752890022e+00  2.71663400e-02  -5.25028700e-02   1.40816000e-02
C     3.730212727947023e+00   2.154611296574101e+00   3.000990056334324e+00 -3.58638700e-02  -3.40759400e-02  -2.26847700e-02
C     4.973576684572790e+00   2.870738829666301e+00   2.999225038091898e+00 -7.52299000e-03   8.15712800e-02   3.03737000e-02
C     6.216665856729813e+00   2.154892663061182e+00   3.001214466362906e+00  3.17861300e-02  -7.64527300e-02  -2.83118400e-02
C     7.459987556626909e+00   2.871148815278270e+00   2.999086450885114e+00  4.65210100e-02   1.55838900e-02   1.11086300e-02
C     8.705049142704100e+00   2.153037535850866e+00   2.998794026732866e+00 -5.76084400e-02   2.51119000e-02   1.21442800e-02
C     9.947139555356539e+00   2.872739026588099e+00   3.000284532442145e+00  3.73942700e-02  -6.80081800e-02  -1.27715000e-02
C     2.485996818414977e+00   4.306780944105749e+00   2.998768429902339e+00  5.25235300e-02   2.13701900e-02   1.39409600e-02
C     3.730411144900488e+00   5.024476077845963e+00   3.001015021252682e+00 -3.56880100e-02   3.34661900e-02  -9.15070000e-03
C     4.973439873233911e+00   4.307812023765038e+00   3.000986095527105e+00  1.08311500e-02  -3.05582700e-02  -1.63739900e-02
C     6.216652049536235e+00   5.026327094190122e+00   2.999757467921966e+00  4.00206900e-02  -7.28275800e-02   1.47336500e-02
C     7.460333815812862e+00   4.306665116118052e+00   2.999585271348884e+00  1.38852400e-02   3.03049100e-02  -4.96470000e-03
C     8.705065449786247e+00   5.024355336524359e+00   2.999518786357061e+00 -7.64608400e-02   5.27113800e-02   1.41511100e-02
C     9.947461553762171e+00   4.308409502469887e+00   3.000143477164870e+00  5.78368600e-02  -4.00911300e-02  -6.57944000e-03
C     1.119262524355731e+01   5.025044349701576e+00   2.999595450107605e+00 -7.22281000e-02   3.31866200e-02  -1.01668000e-03
C     3.729980272229465e+00   6.461033328542814e+00   3.001153615611711e+00  4.31035200e-02  -1.53189600e-02  -9.17330000e-03
C     4.973883128292987e+00   7.178250678792678e+00   2.999251692823300e+00 -6.92936000e-03   4.59923600e-02   2.52085900e-02
C     6.217710137633392e+00   6.460720055849158e+00   3.000712395458995e+00 -2.54186800e-02   5.72679900e-02  -2.34332400e-02
C     7.460444250307714e+00   7.179899328127124e+00   2.998839975909649e+00  5.13406700e-02  -3.07450200e-02   2.29597300e-02
C     8.704062167239670e+00   6.460781606024403e+00   3.001223262075918e+00  2.17459100e-02   2.69636800e-02  -3.28092300e-02
C     9.948630858607542e+00   7.179087509452595e+00   2.999295074982633e+00 -2.38211600e-02   1.92889700e-02   1.42603300e-02
C     1.119245565685315e+01   6.461055643023993e+00   2.999865653223285e+00 -1.61201500e-02   9.38693000e-03   2.35496000e-03
C     1.243575189195457e+01   7.179901691340612e+00   3.001001078485397e+00 -4.89936000e-02  -5.29448100e-02  -4.22006000e-03
