2
Lattice="2.438 0 0 1.219 2.11136993442646 0 0 0 30 " PBC="1 1 1" Properties=species:S:1:pos:R:3:force:R:3 Energy="-16.11320346"
C     0.000000000000000e+00   0.000000000000000e+00   3.000000000000000e+00  0.00000000e+00   0.00000000e+00   0.00000000e+00
C     1.219000000000000e+00   7.037899781421537e-01   3.000000000000000e+00 -0.00000000e+00  -0.00000000e+00  -0.00000000e+00
