2
Lattice="2.427 0 0 1.2135 2.10184365498483 0 0 0 30 " PBC="1 1 1" Properties=species:S:1:pos:R:3:force:R:3 Energy="-16.09609884"
C     0.000000000000000e+00   0.000000000000000e+00   3.000000000000000e+00  0.00000000e+00   0.00000000e+00   0.00000000e+00
C     1.213500000000000e+00   7.006145516616109e-01   3.000000000000000e+00 -0.00000000e+00  -0.00000000e+00  -0.00000000e+00
