32
Lattice="10.012 0 0 5.006 8.6706463426898 0 0 0 30 " PBC="1 1 1" Properties=species:S:1:pos:R:3:force:R:3 Energy="-257.58935968"
C     3.888266236780087e-03  -2.828657586485892e-03   3.000521654360331e+00 -2.81876750e-01   1.00996910e-01  -3.98400000e-04
C     1.251477117456460e+00   7.240441474812634e-01   2.997266632685627e+00 -6.98647400e-02  -2.27706600e-02   1.90189600e-02
C     2.501018258953890e+00   3.406734716128983e-03   2.996159936628705e+00  1.04747230e-01  -7.98129600e-02   2.48234000e-03
C     3.751311366641708e+00   7.244395747717194e-01   2.997152527768178e+00  2.57249250e-01  -3.14190400e-02   4.53898500e-02
C     5.007935996169903e+00  -1.722883766170711e-03   3.004099727209195e+00 -1.75572060e-01   9.06622900e-02  -7.85254800e-02
C     6.258800407434605e+00   7.212140829127568e-01   3.000176786043447e+00 -8.11988300e-02  -9.62125000e-03   5.30256900e-02
C     7.507903289284882e+00  -3.434572410205664e-03   3.003217851728437e+00  1.91591400e-02   9.41458100e-02  -1.57056400e-02
C     8.756974051635975e+00   7.217148384642603e-01   3.003499090689612e+00  2.91093110e-01  -7.62054300e-02  -4.09943400e-02
C     1.249355413371291e+00   2.167366801385129e+00   2.999447577718596e+00  1.33782210e-01   1.41533840e-01  -1.31186600e-02
C     2.505426419695038e+00   2.893219064705866e+00   2.998422489417937e+00 -1.24101840e-01  -1.16540740e-01   2.60080500e-02
C     3.759003032635731e+00   2.169866054481967e+00   3.000407056409109e+00 -1.53087480e-01  -8.89289000e-03  -1.61038400e-02
C     5.009941406627335e+00   2.892685554786693e+00   3.002902492644829e+00 -9.35627300e-02  -1.68661930e-01  -1.79373800e-02
C     6.258026848924299e+00   2.165787817548813e+00   3.001512306939898e+00  7.51145100e-02   7.83336200e-02   6.54018000e-03
C     7.509237823655321e+00   2.890397038017074e+00   3.001832872863274e+00  4.10970500e-02  -1.63151310e-01  -4.70832800e-02
C     8.762115010195036e+00   2.167518426614729e+00   2.998063962765489e+00 -1.51882690e-01  -1.51840300e-02   6.38858100e-02
C     1.001001193197287e+01   2.892831585062860e+00   3.000433730876964e+00  1.61015560e-01  -1.14435110e-01  -3.23647800e-02
C     2.501823201091438e+00   4.336777058401696e+00   3.000019364654365e+00  6.04124800e-02   1.95505300e-02  -4.17877000e-02
C     3.755596846266490e+00   5.057293235916022e+00   2.997066269221259e+00 -1.17544550e-01   2.29781100e-02   2.92510600e-02
C     5.005246728571156e+00   4.333916166338165e+00   3.001364459233314e+00  1.26412390e-01   1.24526180e-01  -2.49813800e-02
C     6.258422598175847e+00   5.056835098467038e+00   2.998696525360948e+00 -2.66162300e-02  -4.55642000e-02   2.96421700e-02
C     7.510871159062045e+00   4.331017615662948e+00   2.997871462865306e+00 -1.46920720e-01   2.01600010e-01   3.80875900e-02
C     8.756930369693583e+00   5.058212993781925e+00   3.000188348345164e+00  2.52402590e-01  -1.23703570e-01  -4.78008600e-02
C     1.001554612285480e+01   4.336075410795398e+00   2.997838037821848e+00 -3.17023360e-01   6.02288300e-02   2.19499200e-02
C     1.126089642935016e+01   5.060996317549058e+00   2.996683634311788e+00  1.33528250e-01  -2.23233770e-01   1.74114000e-02
C     3.752436258532556e+00   6.502927450994594e+00   2.996150485742711e+00  5.20073200e-02  -4.91334300e-02   4.16854500e-02
C     5.005611973295595e+00   7.222313761732994e+00   2.999663215467429e+00 -2.72449100e-02   1.05637010e-01   4.13496000e-03
C     6.254881716340357e+00   6.501173056017204e+00   3.002195189959001e+00  2.25226960e-01   4.96796400e-02  -5.85046000e-02
C     7.510146253149629e+00   7.229193680149852e+00   2.997440740416803e+00 -1.33085270e-01  -1.75496300e-01   1.56679400e-02
C     8.760058352819033e+00   6.500204904889111e+00   2.996863491760482e+00 -6.19915800e-02   2.08708540e-01   2.89148900e-02
C     1.001261522145012e+01   7.224864080307196e+00   2.999460184652621e+00 -8.09876600e-02  -5.94213400e-02   8.50270000e-04
C     1.126001009694813e+01   6.498938321537161e+00   2.997409659446820e+00  1.27251560e-01   2.66552740e-01   2.11375200e-02
C     1.251312860440365e+01   7.224181937269481e+00   3.000860714866525e+00 -1.79381900e-02  -8.18860900e-02  -2.97776900e-02
