32
Lattice="9.8 0 0 4.9 8.4870489570875 0 0 0 30 " PBC="1 1 1" Properties=species:S:1:pos:R:3:force:R:3 Energy="-258.00102611"
C     1.198078208015220e-03   1.213845807695773e-04   2.999464545889790e+00 -1.18116250e-01   6.02457000e-03   1.22668600e-02
C     1.223964359436894e+00   7.071180300224224e-01   2.999933379525901e+00  6.72004800e-02   1.43006700e-02  -3.28097000e-03
C     2.448893878902221e+00  -8.248551018897466e-04   2.999059079243170e+00  6.13750300e-02   8.62477400e-02   1.67609000e-02
C     3.675312109622626e+00   7.081267257763507e-01   3.000367750931665e+00 -1.81029400e-02  -1.08271400e-01  -6.91836000e-03
C     4.901202268127657e+00  -7.264066641072568e-05   3.000289821484740e+00 -7.51724200e-02   1.20810100e-02   7.00169000e-03
C     6.124467534656002e+00   7.084202878810445e-01   3.000424016597873e+00  5.50554200e-02  -6.88637600e-02  -8.86313000e-03
C     7.349854300677499e+00  -5.152660163823676e-04   3.000023764225916e+00 -2.30153400e-02   1.43380300e-02   1.04758500e-02
C     8.574050529194702e+00   7.065851189911800e-01   2.999947453146421e+00  7.57712400e-02   3.35094500e-02  -7.48115000e-03
C     1.224369757484111e+00   2.121487796440012e+00   3.000781239897535e+00  3.76872600e-02   3.25263200e-02  -1.89302400e-02
C     2.448957624923646e+00   2.830053035399784e+00   2.999325995400923e+00  8.06135700e-02  -1.23713870e-01   1.17158700e-02
C     3.675505610137290e+00   2.120808124640967e+00   3.000247460102632e+00 -6.25427300e-02   9.97858000e-02  -8.86978000e-03
C     4.899771641718317e+00   2.829841551182724e+00   2.999387574548218e+00 -2.54373000e-03  -6.69311500e-02   1.51795000e-02
C     6.124896458079078e+00   2.121902949393446e+00   2.999392277989489e+00 -2.01806000e-02   3.70669100e-02   3.58702000e-03
C     7.349045091239552e+00   2.829571580160120e+00   2.999534681146915e+00  8.87308000e-02  -6.21019700e-02  -5.06314000e-03
C     8.575798097215468e+00   2.121643822262159e+00   2.999005640376296e+00 -6.49163700e-02   9.88182000e-03   5.90146000e-03
C     9.800948647932145e+00   2.829608616642669e+00   2.999073734074815e+00 -7.33327700e-02  -6.13435300e-02   5.84171000e-03
C     2.450871879225625e+00   4.242463477308161e+00   2.999225682365351e+00 -1.06103560e-01   1.04186720e-01   1.55904600e-02
C     3.674196808702401e+00   4.951813139345813e+00   3.000407514554497e+00  7.05638700e-02  -9.72980400e-02  -6.03133000e-03
C     4.899399889050575e+00   4.242915203363202e+00   3.001185889584344e+00  1.84902500e-02   7.59338900e-02  -2.44853800e-02
C     6.125438048667114e+00   4.950539367946733e+00   2.998932222125117e+00 -5.93068100e-02  -2.61778400e-02   1.52241900e-02
C     7.349862491608905e+00   4.242806853033022e+00   2.999565345386616e+00  2.16310700e-02   7.37004500e-02  -5.11207000e-03
C     8.575366240578303e+00   4.951327388609672e+00   2.999922414618474e+00 -3.93323700e-02  -2.98367800e-02  -8.80340000e-04
C     9.799234977033970e+00   4.243025627773419e+00   2.999118469947798e+00  3.89190900e-02   5.57309700e-02   1.33629200e-02
C     1.102400718566248e+01   4.950758378035770e+00   3.001202407822910e+00  6.99662000e-02  -5.65260100e-02  -2.58015800e-02
C     3.675930543139926e+00   6.364456850926391e+00   2.999522037574525e+00 -4.32297300e-02   9.22700800e-02   2.04013000e-02
C     4.900256748282352e+00   7.073619543924822e+00   3.000571142776414e+00  2.51784000e-03  -7.95330400e-02  -2.11246100e-02
C     6.123871578517071e+00   6.364453625771496e+00   2.998932368820028e+00  8.27728000e-02   6.11037300e-02   1.24130200e-02
C     7.349864148644027e+00   7.073373240171602e+00   3.000140961665865e+00 -1.01513200e-02  -8.61581400e-02  -8.92500000e-03
C     8.576195393324914e+00   6.365931547042551e+00   3.001080150436640e+00 -7.03807800e-02  -1.62247600e-02  -7.54037000e-03
C     9.800555533570622e+00   7.071934746574835e+00   3.000998262060472e+00  2.85411600e-02   4.58562500e-02  -4.79365000e-03
C     1.102545257058594e+01   6.364319543363272e+00   3.000255383596486e+00 -3.96163000e-03   2.82135900e-02   1.82411900e-02
C     1.225058128928394e+01   7.071896990441088e+00   3.001198015478501e+00 -9.44674000e-03   2.22270000e-04  -1.98628400e-02
