32
Lattice="10.008 0 0 5.004 8.66718224107466 0 0 0 30 " PBC="1 1 1" Properties=species:S:1:pos:R:3:force:R:3 Energy="-257.62262973"
C     8.430341989098381e-04   1.176530101554705e-03   2.999867778770725e+00 -4.73887700e-02  -6.16239800e-02   2.57382000e-03
C     1.250461021684590e+00   7.229437706594222e-01   2.999496956967854e+00  7.08141400e-02  -5.40820000e-03   2.79355000e-03
C     2.503191790357388e+00   1.073738241694536e-03   2.999261094512479e+00 -7.23398900e-02  -8.48465800e-02   2.04518000e-03
C     3.752612549080088e+00   7.215456116810016e-01   2.999496747987509e+00  3.81887800e-02   9.35210900e-02  -4.48300000e-03
C     5.003608813385936e+00   1.025725471439252e-03   2.999088375772314e+00  6.59234000e-03  -8.57631900e-02   7.48910000e-04
C     6.254236422270605e+00   7.214165306582185e-01   2.999029615394338e+00  5.17559400e-02   4.88631500e-02   9.06201000e-03
C     7.505787708607969e+00  -4.969165319551683e-04   2.999090797882936e+00  1.86565800e-02  -9.98784000e-03   1.46622400e-02
C     8.757664018594976e+00   7.225217380012541e-01   3.000292380654090e+00 -4.60950000e-02   9.67810000e-04  -9.97505000e-03
C     1.251417288054077e+00   2.167398175380296e+00   2.999764067891367e+00 -7.19397700e-02  -5.77376000e-03  -4.50131000e-03
C     2.501186188749391e+00   2.888241316213089e+00   2.999573728546112e+00  6.06190100e-02   7.88192000e-02  -1.27157000e-03
C     3.753343779652693e+00   2.167898807422610e+00   2.999419925504827e+00 -4.07297400e-02  -5.29896900e-02  -4.45551000e-03
C     5.002961800686309e+00   2.890302626151162e+00   2.998766304346032e+00  9.77832400e-02  -4.30699300e-02   2.74976700e-02
C     6.256092234728944e+00   2.166452746136864e+00   3.000803444166798e+00 -1.13884920e-01   1.38549800e-02  -1.85765600e-02
C     7.505066519728239e+00   2.888851673451673e+00   3.000916317020457e+00  3.50121900e-02   1.28950900e-02  -1.29758100e-02
C     8.756214987028667e+00   2.167206954712656e+00   2.999992954963472e+00  3.10832800e-02  -5.65520000e-03   4.29853000e-03
C     1.000716828469841e+01   2.890105863279647e+00   2.999408265532964e+00  1.74491200e-02  -2.03330100e-02   7.01780000e-03
C     2.502644469809638e+00   4.334547062997502e+00   2.999380604865085e+00 -1.13966700e-02  -9.34229600e-02   5.53821000e-03
C     3.753890991251005e+00   5.054827111183586e+00   2.999847564049063e+00 -2.17831700e-02   8.65360200e-02   2.56539000e-03
C     5.005031527636629e+00   4.334839659193587e+00   3.001123670301040e+00 -4.04009300e-02  -5.54795600e-02  -2.69521400e-02
C     6.255062984718417e+00   5.056181357438682e+00   2.999418868646185e+00  1.34574800e-02   2.93582900e-02   1.24342000e-02
C     7.505557705594445e+00   4.333599809283874e+00   2.998985972195459e+00 -1.49570300e-02  -4.24635000e-03   1.15360700e-02
C     8.755874632976280e+00   5.055495728292699e+00   2.999237566611149e+00  3.73423400e-02   1.39516100e-02   6.18990000e-03
C     1.000697113474410e+01   4.334603314326486e+00   2.999974346489446e+00  4.29553300e-02  -5.34599400e-02  -7.90373000e-03
C     1.125977640721596e+01   5.054857638286992e+00   2.999861277094061e+00 -5.62342700e-02   6.18819700e-02   2.80547000e-03
C     3.752698365391439e+00   6.500701881319702e+00   2.999317991464566e+00  1.13105800e-02  -5.82809400e-02   1.50862700e-02
C     5.003029969257595e+00   7.222246077572076e+00   3.000094913656078e+00  4.04901700e-02   6.98105400e-02  -4.21306000e-03
C     6.254286410593581e+00   6.501258890101729e+00   3.000254888402889e+00  3.94550100e-02  -3.99303300e-02  -1.15984100e-02
C     7.507012462855900e+00   7.221469228908067e+00   2.999215909507929e+00 -3.63901100e-02   8.70144700e-02   9.11642000e-03
C     8.757634689033202e+00   6.499480125448287e+00   3.000015047651244e+00 -1.39898500e-02   3.08083700e-02  -1.31642200e-02
C     1.000903306363503e+01   7.222506460981512e+00   2.999362008241253e+00 -5.65589400e-02   1.47009000e-02   8.43219000e-03
C     1.125835137087360e+01   6.499940909133525e+00   3.000518344469735e+00  5.50966900e-02  -1.51438100e-02  -7.38505000e-03
C     1.251007315931556e+01   7.221459092851672e+00   3.000624009075908e+00 -2.39731600e-02   5.24317700e-02  -1.69483900e-02
