72
Lattice="7.395 0 0 3.6975 6.40425786098592 0 0 0 13.6 " PBC="1 1 1" Properties=species:S:1:pos:R:3:force:R:3 Energy="-573.05347283"
C     3.680351919375000e+00   6.294508413266073e+00   1.312330517600000e+01  1.18920744e+00  -9.65234470e-01   1.14467780e+00
C     1.329995297925000e+00   5.839984463787474e-01   1.317478321600000e+01 -3.57867623e+00   1.63027921e+00   5.16403790e-01
C     1.337442284775000e+00   9.177034455827240e-01   3.771326103999999e+00 -1.99866630e-01  -1.21907932e+00  -4.04079930e-01
C     2.503054127700000e+00   1.697789124225995e+00   3.721817480000000e+00  2.03184636e+00  -4.48637013e+00  -5.19114800e-02
C     6.290397202875000e+00   6.287932008954797e+00   1.324190057600000e+01 -6.99068462e+00   2.64317802e+00  -5.39287940e-01
C     3.705388875075000e+00   6.125814177188706e-01   1.314132626400000e+01 -9.52325980e-01   1.92581212e+00   1.74900317e+00
C     3.764283172724999e+00   9.269210939206218e-01   3.666879872000000e+00 -1.16830585e+00  -2.11411485e+00   2.29014040e-01
C     5.042211163049999e+00   1.531784356236935e+00   3.594769000000000e+00 -2.99801422e+00   7.21167530e-01   1.53753521e+00
C     8.521146909450000e+00   6.319627513657458e+00   1.328440125600000e+01  4.53467591e+00  -2.09716623e+00  -1.76928320e-01
C     6.071951380199999e+00   4.781932539756372e-01   1.320105583200000e+01  4.31379461e+00   4.64536668e+00  -3.15932980e-01
C     6.211732631549999e+00   7.903745671934113e-01   3.719107000000000e+00  1.59250785e+00   5.43282572e+00  -1.11096870e-01
C     7.439657517600001e+00   1.513691046930863e+00   3.759359464000000e+00  2.17251579e+00   2.55864197e+00  -5.29788190e-01
C     1.218129469050000e+00   2.032595399611577e+00   1.321152837600000e+01  5.17836380e-01   3.87960950e-01  -5.22093890e-01
C     2.467360348425000e+00   2.802286199237125e+00   1.324507236800000e+01 -1.03447554e+00  -2.18127860e+00   8.84334220e-01
C     2.504787256875000e+00   3.035063809037060e+00   3.709693216000000e+00  1.99943147e+00   3.62263603e+00  -5.06019000e-01
C     3.723067731825000e+00   3.750347171970399e+00   3.624316359999999e+00  3.41519052e+00   3.77170330e-01   1.71929751e+00
C     3.674273044500000e+00   1.985899650021487e+00   1.333193570400000e+01  8.74948110e-01   3.88663394e+00  -2.63702055e+00
C     4.938801405750000e+00   2.681592516246244e+00   1.307187256000000e+01 -9.00132930e-01   1.60379247e+00   2.24030428e+00
C     4.970179573950000e+00   2.927197342199130e+00   3.794535999999999e+00  6.19372570e-01   2.52594653e+00  -2.35486437e+00
C     6.218713178774999e+00   3.622325288838056e+00   3.753229264000000e+00  1.22288640e+00   2.40093467e+00  -4.34016890e-01
C     6.169722745800000e+00   1.932623397395091e+00   1.309368165600000e+01 -2.30229530e+00   7.35402920e-01   1.03022170e-01
C     7.320498998550001e+00   2.711485286403894e+00   1.305296828800000e+01  2.86167890e+00   1.48186782e+00   6.80784840e-01
C     7.530709083674999e+00   2.997391018345924e+00   3.688544536000000e+00 -2.76515645e+00  -6.84620230e-01   8.97780750e-01
C     8.755007350800000e+00   3.796163168658261e+00   3.730547320000000e+00 -3.27069271e+00  -2.44350219e+00  -6.20926220e-01
C     2.458171913025000e+00   4.217842497446378e+00   1.326436124800000e+01 -2.18603631e+00  -9.71257350e-01   2.78285020e-01
C     3.668329202325000e+00   4.863202123701722e+00   1.316637705600000e+01  1.43541158e+00   1.28695241e+00   4.53904130e-01
C     3.854037396975000e+00   5.248270551794471e+00   3.716367552000000e+00 -1.00980879e+00  -3.54545137e+00  -1.02826910e-01
C     5.161965645150000e+00   5.889446340432455e+00   3.702649096000000e+00 -6.36356855e+00   1.13793793e+00   2.50505490e-01
C     4.899920085674999e+00   4.179203944669955e+00   1.315303314400000e+01  7.63911120e-01  -1.43972554e+00  -2.62234750e-01
C     6.113478224550000e+00   4.968643554258384e+00   1.317185649600000e+01  1.10264672e+00  -5.31464590e+00  -6.74397100e-01
C     6.249315463575000e+00   5.115310985852068e+00   3.692414280000000e+00  2.08292474e+00  -2.78901153e+00   6.67102950e-01
C     7.430098777574999e+00   5.842441457315464e+00   3.770225728000000e+00  3.07737692e+00   1.74070157e+00  -1.44450714e+00
C     7.333839208800000e+00   4.263877904008523e+00   1.304460714400000e+01  8.71759910e-01  -4.04142329e+00   2.18753243e+00
C     8.574053623499999e+00   4.942500733248078e+00   1.333731736000000e+01 -5.41654140e-01  -3.24150006e+00  -1.90990876e+00
C     8.737862376075000e+00   5.172026581119598e+00   3.705819120000000e+00 -1.58757969e+00   8.57943450e-01   1.09899354e+00
C     9.953483239274998e+00   5.888350892125502e+00   3.819858519999999e+00  1.13930450e+00  -4.16244230e+00  -1.37257163e+00
C     1.165416134250000e-01   8.162719770425221e-02   6.707798936000000e+00 -4.78043650e+00   9.48790440e-01   6.10027880e-01
C     1.255640680500000e+00   7.969309902201648e-01   6.875065880000000e+00  1.51644600e-01   3.29393191e+00  -1.09911260e-01
C     1.158770247750000e+00   4.978125698445900e-01   1.027928133600000e+01 -2.74869855e+00   2.65155822e+00  -1.16813576e+00
C     2.292863047725000e+00   1.227011808724502e+00   1.012785227200000e+01  4.99804234e+00   1.34078152e+00  -3.50339340e-01
C     2.458018134000000e+00   1.753155342362424e-01   6.983455431999999e+00  3.74469964e+00  -2.66958423e+00  -9.74152500e-02
C     3.803239145325000e+00   7.651351948394154e-01   7.007063671999999e+00 -1.12812104e+00  -8.81333260e-01   3.06553410e-01
C     3.598126877400000e+00   5.342750838853428e-01   9.927426896000000e+00 -1.09056324e+00  -5.26672360e-01   3.03483913e+00
C     4.830450531299999e+00   1.278376070166796e+00   1.021308809600000e+01 -4.27452020e-01  -1.69581920e+00  -2.20434397e+00
C     5.079089103674999e+00   9.601359447579901e-02   7.015331928000000e+00 -1.81375817e+00  -1.34281920e-01  -1.61410417e+00
C     6.264089897100000e+00   8.913515255532889e-01   6.801744472000000e+00  6.87869100e-02  -2.09513268e+00   8.17940110e-01
C     6.114130648424999e+00   5.856182112766987e-01   1.012774728000000e+01 -2.13647095e+00  -8.40582950e-01   6.15795100e-01
C     7.315081125749999e+00   1.297896504294390e+00   1.025370531200000e+01  1.28579634e+00  -9.31221560e-01   2.92838000e-03
C     8.594951006099999e+00   2.255828359667282e+00   6.898146575999999e+00  2.59233628e+00  -1.41895622e+00   7.83179260e-01
C     2.504397910125000e+00   2.851179505869295e+00   7.089184280000000e+00 -7.07627940e-01   9.81656600e-01  -2.47120226e+00
C     2.385285018225000e+00   2.673610953717905e+00   1.020128329600000e+01 -7.92135200e-01  -3.62545300e-02  -9.59127800e-02
C     3.614083919325000e+00   3.357549829321889e+00   1.031505967200000e+01 -1.84088379e+00   2.33257157e+00  -1.35814519e+00
C     3.768170502375000e+00   2.124150605935558e+00   7.025079999999999e+00 -1.87307754e+00   3.19019218e+00   4.91694720e-01
C     4.898460016875000e+00   2.931600077350144e+00   7.026944152000000e+00  3.42950218e+00   2.68537540e-01  -4.53061860e-01
C     4.787436367574999e+00   2.695588573501224e+00   1.025713006400000e+01  3.20482462e+00  -1.98231386e+00   3.03465840e-01
C     6.030080594400000e+00   3.397552553065071e+00   1.022767776800000e+01  1.40580618e+00  -1.74146203e+00   3.20074670e-01
C     6.219288029099999e+00   2.317484455618332e+00   6.898060080000000e+00 -1.69396489e+00  -2.12600427e+00  -2.13285120e-01
C     7.428036570900000e+00   2.999119207329445e+00   6.820599784000001e+00 -1.18428866e+00   2.23451760e+00   7.53544390e-01
C     7.361453950575000e+00   2.726914488482785e+00   1.027759303200000e+01 -1.85151137e+00  -3.72372160e-01  -1.31219571e+00
C     8.600241647924999e+00   3.455854675132259e+00   1.013969828000000e+01 -2.48499768e+00  -2.09412619e+00   1.11767123e+00
C     2.472217125600000e+00   4.252014528663501e+00   6.808318848000000e+00 -3.11070000e-03   2.96485478e+00   1.41542305e+00
C     3.677375690699999e+00   5.094415621604510e+00   6.755941847999999e+00  1.66706342e+00  -3.44319097e+00   1.28203442e+00
C     3.632862782325000e+00   4.806885385613712e+00   1.023363021600000e+01 -2.57862858e+00   2.13073330e-01  -4.66672190e-01
C     4.856409125850000e+00   5.535645292404427e+00   1.021000008000000e+01 -2.52925749e+00  -1.89626248e+00   2.90655130e-01
C     4.927779343125000e+00   4.335585546713421e+00   6.997811183999999e+00 -8.91847800e-01   2.99362330e+00  -1.20014172e+00
C     6.170422719525000e+00   5.161971127768455e+00   6.968792727999999e+00 -2.61264152e+00  -1.52388583e+00   2.15451400e-01
C     5.995384326675000e+00   4.768233511980939e+00   1.020273822400000e+01  2.52299909e+00   1.09776724e+00  -8.01584250e-01
C     7.236896637825000e+00   5.437468980049307e+00   1.005644465600000e+01 -1.06812990e+00   4.61120017e+00  -2.40874080e-01
C     7.357392986324999e+00   4.479224340722531e+00   6.910275192000000e+00  2.65892301e+00  -2.89212893e+00  -1.27556000e-02
C     8.630864158050001e+00   5.065341059431053e+00   6.908889352000000e+00  2.33332686e+00   2.48911370e-01  -2.12750840e-01
C     8.438072736600001e+00   4.846226165264484e+00   1.011158680800000e+01  5.69512625e+00  -9.49174400e-01  -3.68652090e-01
C     9.750477991724999e+00   5.531023531634601e+00   1.008670941600000e+01  5.75482280e-01   8.60697120e-01   6.95891790e-01
