32
Lattice="9.86 0 0 4.93 8.53901048131456 0 0 0 30 " PBC="1 1 1" Properties=species:S:1:pos:R:3:force:R:3 Energy="-257.45207602"
C     1.282258835100000e+00   8.345937475739864e-01   3.332405100000000e+00 -1.32548048e+00   7.27564590e-01   1.02514382e+00
C     2.473891304299999e+00   1.589800741665937e+00   3.380047800000000e+00  1.18240906e+00   1.25015810e-01  -4.34759320e-01
C     3.726383933300000e+00   8.998329831026537e-01   3.365086800000000e+00 -3.66877710e-01  -1.45252128e+00   3.47958290e-01
C     4.976452382700000e+00   1.557805923298425e+00   3.364037700000000e+00 -1.30387680e+00   2.13686539e+00  -2.83283840e-01
C     6.184809827600000e+00   8.475015719858688e-01   3.305709300000000e+00  2.27110560e-01   5.34283410e-01   1.06352065e+00
C     7.397550929900000e+00   1.579903857739407e+00   3.423726300000000e+00  4.27883790e-01   1.21710830e-01  -3.10949220e-01
C     8.627353973399998e+00   8.751840192807713e-01   3.417435000000000e+00  9.05032710e-01  -3.09846160e-01   3.16123270e-01
C     9.897837552799999e+00   1.551139773987003e+00   3.417261000000000e+00 -7.42038530e-01   6.66799010e-01  -3.99265440e-01
C     2.483467434900000e+00   3.016893968849561e+00   3.349441800000000e+00 -6.67834070e-01  -4.59299610e-01  -5.89320600e-02
C     3.716528222400000e+00   3.715724793340560e+00   3.326861700000000e+00  6.77672200e-02  -2.16136050e-01   2.71871300e-02
C     4.931020657900000e+00   3.036388529775401e+00   3.372230700000000e+00  1.50477603e+00  -2.29653065e+00  -9.36508600e-02
C     6.175791378600000e+00   3.738914525661515e+00   3.395118900000000e+00 -5.75008480e-01  -6.92371050e-01   2.60928330e-01
C     7.400610044200000e+00   3.007062749913622e+00   3.465902700000000e+00 -5.60360320e-01  -2.83855060e-01  -7.42605680e-01
C     8.615687720000000e+00   3.701971692281262e+00   3.388374000000000e+00  1.54579197e+00   2.05983450e-01   4.73728560e-01
C     9.869874050499998e+00   2.989584505532425e+00   3.403441800000000e+00  2.46567700e-02  -4.21906500e-01  -2.85082770e-01
C     1.109983850220000e+01   3.711073935892523e+00   3.339060300000000e+00 -2.39439320e-01  -1.33661800e-01   5.40555800e-02
C     3.759458120100000e+00   5.120575862196194e+00   3.287898000000000e+00 -2.36359198e+00   8.96439640e-01   5.27993950e-01
C     4.912887526300000e+00   5.883603906766986e+00   3.379438800000000e+00  2.40229761e+00  -1.19693264e+00  -2.24805370e-01
C     6.170531315100000e+00   5.138487461359252e+00   3.400050900000000e+00  2.35945460e-01   1.60084693e+00  -1.53195950e-01
C     7.428507040800000e+00   5.843804688991069e+00   3.389258100000000e+00 -6.06602620e-01  -1.84347900e-02   4.40665150e-01
C     8.654479030600001e+00   5.131800306082050e+00   3.365037300000000e+00 -4.52347020e-01  -1.40273510e-01  -1.52343860e-01
C     9.885154881300000e+00   5.851256768827070e+00   3.304548600000000e+00 -6.75723130e-01  -2.16651600e-01   4.26851970e-01
C     1.108559011200000e+01   5.125489635776910e+00   3.297662100000000e+00  1.97286480e+00   3.97732780e-01  -6.42742100e-02
C     1.237119903000000e+01   5.819913733129496e+00   3.294789600000000e+00 -1.26763912e+00   3.48860700e-01  -1.96975990e-01
C     4.922196993200000e+00   7.297205753562525e+00   3.397630800000000e+00  1.07060106e+00  -7.54457290e-01   1.92254740e-01
C     6.182409410600000e+00   7.958774983412052e+00   3.404016000000000e+00  2.14044520e-01   5.87183190e-01  -7.59564200e-02
C     7.424859481700000e+00   7.271019597074033e+00   3.446792100000000e+00 -7.44587620e-01  -6.20686230e-01  -5.82123780e-01
C     8.628710068499998e+00   7.988496973360103e+00   3.407914500000000e+00  1.13308058e+00   6.62059970e-01  -2.58508210e-01
C     9.870454212900000e+00   7.268685885509848e+00   3.351126000000000e+00 -7.14972700e-02   4.84818410e-01  -8.93140400e-02
C     1.110405172950000e+01   7.980167339417073e+00   3.340486200000000e+00  5.07197380e-01  -1.08881830e+00  -4.98981510e-01
C     1.235079336560000e+01   7.248083387974229e+00   3.311137500000000e+00 -2.60121470e-01   2.80483920e-01   6.23094890e-01
C     1.357405316520000e+01   7.985289977194130e+00   3.426336600000000e+00 -1.19843357e+00   5.25734480e-01  -8.74497810e-01
