32
Lattice="9.86 0 0 4.93 8.53901048131456 0 0 0 30 " PBC="1 1 1" Properties=species:S:1:pos:R:3:force:R:3 Energy="-256.37846946"
C     9.761640781200001e+00   2.847929067487504e-01   4.051677000000000e+00  2.36776252e+00  -4.29631420e-01  -3.69066120e-01
C     1.189329764800000e+00   1.002276089561947e+00   3.993463500000000e+00 -4.44797880e-01  -1.28860057e+00   3.49688590e-01
C     2.420067191200000e+00   2.674665713639920e-01   4.157911500000000e+00 -1.52781773e+00  -2.00748705e+00   3.12599380e-01
C     3.649119001299999e+00   8.897021302889719e-01   4.191171000000000e+00  2.52576710e-01   3.78305763e+00  -9.03489260e-01
C     4.896525842300000e+00   2.517448014385304e-01   4.216119300000000e+00 -3.46516300e-02   1.74353050e-01  -4.42297000e-02
C     6.133636279700000e+00   9.946318819901464e-01   4.180158300000000e+00 -5.89493040e-01  -2.31775777e+00  -1.82820000e-03
C     7.321193808099999e+00   1.916590295147528e-01   4.191284400000000e+00  1.85398098e+00   3.44177371e+00  -1.42847778e+00
C     8.556257210899998e+00   9.893523825905720e-01   3.969252600000000e+00 -7.98848460e-01  -1.80661098e+00   1.35564855e+00
C     1.110210852070000e+01   2.411170209099652e+00   3.890777100000000e+00 -2.82865604e+00  -7.09694220e-01   4.09819500e-02
C     2.449032124400000e+00   3.071455769503721e+00   3.954297600000000e+00 -3.68081430e-01   2.43775967e+00   2.60159590e-01
C     3.629860104200000e+00   2.364098828438547e+00   4.036537200000000e+00  2.30949010e+00  -9.62384520e-01   7.71128370e-01
C     4.869053417300000e+00   3.104507290418133e+00   4.118419500000000e+00  7.06952280e-01  -3.42253110e-01   3.81118200e-02
C     6.147584482199999e+00   2.409308619424908e+00   4.126205100000000e+00 -2.61177817e+00  -1.05572507e+00   5.19711390e-01
C     7.328197513999999e+00   3.088613886382024e+00   4.151387100000000e+00  2.44451296e+00   2.00950023e+00  -4.46151520e-01
C     8.588036631800000e+00   2.380797546553026e+00   3.975439500000000e+00 -1.55013550e-01   1.97275928e+00   3.54800700e-02
C     9.840878304800000e+00   3.128536322079168e+00   3.878809800000000e+00 -5.06541120e-01  -8.18029920e-01   4.98616650e-01
C     1.227556501660000e+01   4.530056237556449e+00   4.043073900000000e+00 -4.60302790e-01  -8.56590010e-01  -7.29679010e-01
C     3.621857432400000e+00   5.210330340642628e+00   4.075739100000000e+00  2.13980172e+00   1.96683340e-01   9.80251120e-01
C     4.885664411400001e+00   4.527672828951272e+00   4.185507000000000e+00 -2.98856920e-01  -3.67873980e-01  -4.07036750e-01
C     6.125031704200000e+00   5.267180169154904e+00   4.289530800000001e+00 -1.20422324e+00  -5.70635640e-01  -4.78374890e-01
C     7.329990653599999e+00   4.540009820512566e+00   4.248444600000000e+00  1.27105315e+00  -9.59932190e-01  -5.60158190e-01
C     8.610254416299998e+00   5.216495250038872e+00   4.150375800000000e+00 -2.34453742e+00   5.54916340e-01   5.52981610e-01
C     9.810248461300000e+00   4.548617057686302e+00   3.977557800000000e+00  1.26678995e+00  -7.29682680e-01   1.91421700e-01
C     1.104938537520000e+01   5.288204579198341e+00   4.037306700000000e+00 -7.03995100e-02  -3.20983339e+00  -3.19245990e-01
C     1.354555934280000e+01   6.614192165134154e+00   4.163592899999999e+00 -3.65920450e-01   1.24411883e+00  -5.60336260e-01
C     4.870782959900001e+00   7.387591264883430e+00   4.177928400000000e+00  9.35042300e-02   3.71824720e-01  -2.26847820e-01
C     6.100433074800000e+00   6.703509019293486e+00   4.239525900000000e+00 -6.67768340e-01  -1.68063842e+00   5.46370780e-01
C     7.303925299900000e+00   7.347906896798468e+00   4.299029100000000e+00  2.35009274e+00   1.79505855e+00  -6.17622830e-01
C     8.560932625700000e+00   6.623694802946821e+00   4.273646700000000e+00  3.86819540e-01   1.68998750e+00  -5.44615760e-01
C     9.785689764899999e+00   7.389475995276575e+00   4.179895500000000e+00  1.64477225e+00  -1.89037187e+00   3.10669520e-01
C     1.106621447250000e+01   6.645008514665321e+00   4.101703500000000e+00 -3.92762790e-01   2.71426349e+00   3.35144600e-01
C     1.235603928000000e+01   7.340423734964320e+00   4.123810800000000e+00 -3.41765860e+00  -3.82323520e-01   5.38194390e-01
