32
Lattice="9.86 0 0 4.93 8.53901048131456 0 0 0 30 " PBC="1 1 1" Properties=species:S:1:pos:R:3:force:R:3 Energy="-256.20248393"
C     9.785231274899999e+00   5.757493566520696e-01   3.569316900000000e+00 -7.73624040e-01  -3.96500983e+00   7.01789600e-02
C     1.148010941800000e+00   1.261682005813029e+00   3.558031200000000e+00  1.79614760e-01  -8.29603110e-01   3.77876300e-02
C     2.394161914600000e+00   5.665052800767361e-01   3.555418200000000e+00 -5.93539030e-01  -3.04893379e+00  -7.75864750e-01
C     3.645748557500000e+00   1.179971958359594e+00   3.356199900000000e+00 -1.15788545e+00   1.68013939e+00   1.42164367e+00
C     4.876717693900000e+00   5.110783068807416e-01   3.441450000000000e+00 -1.23592400e+00  -2.54970957e+00  -3.23501320e-01
C     6.045533925900000e+00   1.254357157233180e+00   3.465745800000000e+00  9.87017560e-01  -6.17813900e-01   1.44543820e-01
C     7.262342820500000e+00   4.991291571754488e-01   3.504435600000000e+00  1.38618977e+00   2.50940380e-01  -1.92229870e-01
C     8.533260535700000e+00   1.202380712782049e+00   3.497558700000000e+00 -2.18286770e-01   1.26776041e+00   7.53726650e-01
C     1.095523706660000e+01   2.633915677047054e+00   3.486146100000000e+00  1.51686670e+00   2.66528925e+00  -4.11862220e-01
C     2.365285967900000e+00   3.331346957720382e+00   3.324834900000000e+00 -5.96603240e-01   2.19286300e-02   1.20952341e+00
C     3.578425611400000e+00   2.616487556657375e+00   3.408591900000000e+00  1.18785014e+00   3.40770350e-01  -4.05519770e-01
C     4.787679034500000e+00   3.376265568449374e+00   3.528945000000000e+00  8.05707510e-01   1.24422180e-01  -6.95009330e-01
C     6.021360361099999e+00   2.674643426822567e+00   3.492276300000000e+00  1.00981442e+00  -7.38132110e-01  -1.26151510e-01
C     7.309639860100001e+00   3.316011065678511e+00   3.450147900000000e+00 -8.18231640e-01   5.19302410e-01   8.37507240e-01
C     8.566493172700000e+00   2.650463852406770e+00   3.551287500000000e+00 -2.23837510e+00  -1.36369427e+00  -6.93698150e-01
C     9.741863395999999e+00   3.380368477594909e+00   3.553392600000000e+00  1.28031415e+00   1.19935071e+00  -8.56196770e-01
C     1.228391086570000e+01   4.749441092539342e+00   3.373069200000000e+00 -1.41250146e+00   5.51379530e-01  -1.37544670e-01
C     3.624063262300000e+00   5.515188299607386e+00   3.402261900000000e+00 -5.93958800e-01  -1.53277539e+00   5.89873130e-01
C     4.834814813800000e+00   4.820512045275327e+00   3.534932100000000e+00 -7.71199840e-01  -1.48972023e+00  -8.62905310e-01
C     6.041774800899999e+00   5.511721461352506e+00   3.487607100000000e+00  2.40045535e+00  -3.47402679e+00   7.31129430e-01
C     7.302512953499999e+00   4.701163747428148e+00   3.484451100000000e+00 -8.23057460e-01   3.63395230e+00  -1.55675840e-01
C     8.499038989999999e+00   5.522608955884821e+00   3.485848200000000e+00  6.96473940e-01  -4.08097529e+00   1.16666830e-01
C     9.772951384399999e+00   4.858410564708501e+00   3.447182700000000e+00 -4.92402670e-01  -3.25288379e+00   4.75673780e-01
C     1.103972203290000e+01   5.472047852420750e+00   3.418613100000000e+00 -5.28260900e-01  -9.00874830e-01  -6.23196900e-02
C     1.346162757180000e+01   6.900552321866403e+00   3.459926700000000e+00 -7.08759100e-02   2.35843247e+00   4.86392220e-01
C     4.834835519800000e+00   7.625364708154794e+00   3.574665900000000e+00  2.10213210e-01   6.88510310e-01  -2.93346930e-01
C     6.072028386800000e+00   6.871272908831531e+00   3.588876000000000e+00 -6.21931070e-01   3.81016667e+00  -2.74696600e-01
C     7.281169060800000e+00   7.639217032515869e+00   3.585713100000000e+00  7.82795250e-01   9.12025000e-03   1.42133470e-01
C     8.501259166199999e+00   6.862446475258774e+00   3.567715800000000e+00  6.19154130e-01   4.86940698e+00  -8.72174830e-01
C     9.794794784699999e+00   7.562837035404050e+00   3.450203100000000e+00 -2.11034418e+00   1.70748399e+00   7.35324710e-01
C     1.098724376050000e+01   6.856627395786969e+00   3.454350300000000e+00  1.60497623e+00   1.72933229e+00  -2.58490000e-03
C     1.220608100500000e+01   7.607292404814503e+00   3.502381500000000e+00  3.89558450e-01   4.16464400e-01  -6.10822510e-01
