32
Lattice="9.86 0 0 4.93 8.53901048131456 0 0 0 30 " PBC="1 1 1" Properties=species:S:1:pos:R:3:force:R:3 Energy="-255.04865309"
C     5.032889149299999e+00   7.766043795741431e+00  -5.006352000000014e-01 -1.59989782e+00  -2.16821409e+00   8.26324080e-01
C     6.245419346199999e+00   8.432927278763188e+00  -4.144721999999987e-01  1.14794118e+00  -6.69600000e-02  -3.10129670e-01
C     7.508626097699999e+00   7.647680301972911e+00  -4.119347999999974e-01 -6.56653770e-01   5.32874424e+00  -1.95035600e-02
C     8.729002784000000e+00   8.423006144046894e+00  -4.136477999999997e-01 -8.65756190e-01   1.56877420e-01   5.74785320e-01
C     9.954743753999999e+00   7.731763169658528e+00  -4.528146000000000e-01 -1.53278558e+00  -2.03696620e+00   1.67465410e-01
C     1.116558695420000e+01   8.422542134217410e+00  -4.349985000000025e-01 -6.38459150e-01  -2.09907120e-01  -1.12148490e-01
C     1.236713552680000e+01   7.696966018831690e+00  -4.164804000000011e-01  1.96812654e+00  -2.20596280e-01   9.67241910e-01
C     1.361827373690000e+01   8.440377992357512e+00  -4.299006000000034e-01 -1.21502120e-01   7.65599200e-02  -2.45797300e-01
C     1.290410097100000e+00   1.315102482326433e+00  -3.194003999999993e-01  1.63766899e+00  -1.27426905e+00   4.56606210e-01
C     2.554640612400000e+00   1.981563284329429e+00  -9.423929999999814e-02 -2.80208255e+00   2.48779980e-01  -1.65601832e+00
C     3.719486271700000e+00   1.318776818535977e+00  -2.584620000000015e-01  3.49131912e+00  -2.23978040e+00  -1.91361190e-01
C     4.963348245500000e+00   2.045257215131530e+00  -3.233496000000002e-01 -6.43997480e-01  -9.80813850e-01  -2.02179010e-01
C     6.153923229700000e+00   1.287271456249178e+00  -4.170890999999983e-01  2.30046128e+00   1.23610444e+00  -3.85488680e-01
C     7.417918288199999e+00   1.990529245333429e+00  -4.664321999999999e-01 -4.13137990e-01   2.06741269e+00   7.23479020e-01
C     8.669956124699999e+00   1.355123116644097e+00  -4.091757000000023e-01  1.88550600e-01  -2.62515479e+00  -7.25702270e-01
C     9.945248475400000e+00   2.016533777069011e+00  -3.909660000000024e-01 -1.43912094e+00  -1.91251061e+00   5.35974970e-01
C     2.598814546300000e+00   3.360740281155057e+00  -1.694874000000013e-01 -3.75376842e+00   3.24796496e+00   1.25140909e+00
C     3.761649603700000e+00   4.118868641512424e+00  -1.440993000000006e-01  7.07950470e-01   2.06207191e+00   1.29151620e-01
C     4.945627360500000e+00   3.460683592296330e+00  -3.223529999999997e-01  3.03429447e+00  -6.36450230e-01   5.43290000e-03
C     6.210001141599999e+00   4.192027553090978e+00  -4.274184000000005e-01 -9.22015800e-01  -3.39601968e+00   2.14102030e-01
C     7.413968618700000e+00   3.453671869230783e+00  -4.184160000000006e-01  6.16253390e-01  -7.76684660e-01   3.69732930e-01
C     8.635323219800000e+00   4.163275338563141e+00  -2.662212000000004e-01  2.84271797e+00  -3.12890915e+00  -8.37500220e-01
C     9.927042231900000e+00   3.352726078259157e+00  -2.588571000000002e-01 -1.33976570e-01   5.98208652e+00   3.04496420e-01
C     1.118129521600000e+01   4.125804965115433e+00  -1.660547999999977e-01 -2.84293880e-01  -9.58294470e-01  -5.11937910e-01
C     3.832633912900000e+00   5.565832487643428e+00  -5.458649999999921e-02 -2.26341140e+00   8.79642280e-01  -2.46747752e+00
C     5.042076204300001e+00   6.297764188529414e+00  -4.212845999999999e-01 -1.16269598e+00  -2.14532380e-01   1.16937805e+00
C     6.251673642800000e+00   5.534030223962240e+00  -4.696445999999987e-01  9.50662200e-01   4.89604997e+00   3.75614270e-01
C     7.532776787300000e+00   6.327712035304660e+00  -4.203588000000025e-01 -1.09427984e+00  -5.89777120e+00  -3.67042020e-01
C     8.784569849299999e+00   5.542178916273199e+00  -3.515442000000029e-01 -5.26819000e+00   8.13941800e-01  -1.66536470e-01
C     9.906817054799999e+00   6.254269799358380e+00  -4.058069999999994e-01  4.34660768e+00   2.72200788e+00   4.04655610e-01
C     1.116472898630000e+01   5.590379068729655e+00  -2.464490999999995e-01 -8.91098220e-01  -2.92069126e+00   2.84544890e-01
C     1.236389060080000e+01   6.253696148634335e+00  -1.740801000000012e-01  3.25456983e+00   1.94628141e+00  -5.61572110e-01
