32
Lattice="9.86 0 0 4.93 8.53901048131456 0 0 0 30 " PBC="1 1 1" Properties=species:S:1:pos:R:3:force:R:3 Energy="-252.74442124"
C     1.065377141200000e+00   1.258900679319483e+00   3.400042800000000e+00  2.51691005e+00  -4.55149191e+00  -3.59973060e-01
C     2.284561507000000e+00   1.946229883644446e+00   3.270407400000000e+00  2.39442872e+00  -5.20023050e-01   9.24898040e-01
C     3.622572528900000e+00   1.157878976544690e+00   3.337644000000000e+00 -3.55983320e+00   2.12695068e+00   1.72010010e-01
C     4.867709548600000e+00   1.828645147631702e+00   3.543189000000000e+00 -4.51551582e+00   2.06695880e+00  -5.38821850e-01
C     6.051401611899999e+00   1.220202823115276e+00   3.639606300000000e+00  2.11676294e+00  -1.01087718e+00  -2.09755355e+00
C     7.268145529100000e+00   2.044893453285082e+00   3.363423600000000e+00 -2.43759382e+00  -4.66029729e+00   1.55612679e+00
C     8.389593137899999e+00   1.242067642570154e+00   3.278685000000000e+00  4.20828327e+00   2.55809282e+00  -2.60168810e-01
C     9.719554948799999e+00   1.895070793276461e+00   3.321838500000000e+00 -2.28282988e+00  -3.98128130e-01   2.12831000e-02
C     2.305672999500000e+00   3.401939298918961e+00   3.299781000000000e+00 -1.27299159e+00  -3.28460479e+00   1.95250570e-01
C     3.507809671800000e+00   4.016355685947405e+00   3.303392700000000e+00  3.18399137e+00  -1.80817270e-01   8.30277830e-01
C     4.790909811399999e+00   3.230768429589501e+00   3.490979100000000e+00 -1.80259884e+00   2.86471453e+00  -6.82476610e-01
C     5.957110333299999e+00   3.977606595680318e+00   3.519440400000000e+00  1.71647444e+00   4.26222841e+00  -6.55303040e-01
C     7.225861412100000e+00   3.399275127649201e+00   3.432407400000000e+00  1.77046850e+00   1.21988890e-01   5.37819670e-01
C     8.569826740099998e+00   3.997396777148975e+00   3.470086800000000e+00 -3.24629896e+00   1.09967712e+00  -1.42578929e+00
C     9.718301594900000e+00   3.267622030310238e+00   3.368579700000000e+00  2.94521299e+00   2.76250557e+00   7.57056830e-01
C     1.097746702820000e+01   4.112281563438048e+00   3.446935500000000e+00 -1.96663527e+00  -1.47173599e+00  -1.46595772e+00
C     3.461618135400000e+00   5.414924860963218e+00   3.340756500000000e+00  4.03940331e+00   1.67647582e+00  -1.93815430e-01
C     4.737969795200000e+00   6.152237846253700e+00   3.371495700000000e+00  5.01961490e-01   2.04705541e+00   4.24533450e-01
C     6.051908761000000e+00   5.539441565683625e+00   3.426122700000000e+00 -3.56796656e+00  -4.79155114e+00   8.50321270e-01
C     7.288753274199999e+00   6.107541591357606e+00   3.510781500000000e+00  2.55693852e+00   1.88452339e+00  -1.70298948e+00
C     8.638630313100000e+00   5.381104145984768e+00   3.357100200000000e+00 -5.21002287e+00   1.03252447e+00   1.98703257e+00
C     9.760520241500000e+00   6.138197236711539e+00   3.463303500000000e+00 -1.84876858e+00   4.30848007e+00  -5.84336070e-01
C     1.096899778120000e+01   5.549100381997973e+00   3.386586600000000e+00  1.40168248e+00  -2.88656075e+00   8.99562860e-01
C     1.218724953890000e+01   6.215420290328049e+00   3.369192600000000e+00 -2.62011910e-01   1.99802638e+00   1.81143750e-01
C     4.740132586200000e+00   7.620162059849539e+00   3.415772100000000e+00  6.83082670e-01  -6.71895280e-01  -7.87255890e-01
C     6.063975330400000e+00   8.224179554525334e+00   3.512956500000000e+00 -3.74234702e+00   3.86695410e+00  -1.35954506e+00
C     7.265583901099999e+00   7.570750648756496e+00   3.411382800000000e+00 -8.47127790e-01  -2.03704679e+00   5.45324660e-01
C     8.432562130500001e+00   8.312017708239846e+00   3.315960000000000e+00  1.48973238e+00  -1.26410700e-02   1.04534125e+00
C     9.610054077899999e+00   7.607444996931780e+00   3.482313300000000e+00  4.35582708e+00  -1.11888312e+00  -5.08438370e-01
C     1.089356040020000e+01   8.335839071166006e+00   3.494675700000000e+00  7.83349660e-01  -7.65421000e-02   7.54969690e-01
C     1.218136380910000e+01   7.713575333506443e+00   3.431646900000000e+00 -1.84481217e+00  -3.73744594e+00  -1.21788928e+00
C     1.334660150200000e+01   8.427976189706673e+00   3.209766600000000e+00  1.74284439e+00  -3.26661466e+00   2.15736116e+00
