32
Lattice="9.86 0 0 4.93 8.53901048131456 0 0 0 30 " PBC="1 1 1" Properties=species:S:1:pos:R:3:force:R:3 Energy="-250.53268998"
C     5.045705670299999e+00   8.470844327849104e+00  -4.775310000000026e-01 -5.09612346e+00   2.29588999e+00  -9.42168220e-01
C     1.242855958000000e+00   7.374214307235776e-01  -6.022815000000001e-01  7.61773410e-01  -1.62323143e+00   1.22761657e+00
C     2.467287273500000e+00   1.049392300028072e-01  -5.649797999999997e-01  1.85174895e+00  -7.22098523e+00  -1.17856258e+00
C     3.754713340200000e+00   5.789245876990576e-01  -4.611498000000012e-01  5.80909140e-01   5.61875743e+00   2.87801394e+00
C     9.962685195199999e+00   8.503555825366201e+00  -2.109930000000020e-01 -2.69685644e+00  -6.30985670e-01  -1.07556817e+00
C     6.276520448399999e+00   7.630259952082769e-01  -2.391789000000024e-01 -2.15381264e+00  -8.23484063e+00  -1.92308680e-01
C     1.237116121690000e+01   8.477780053721379e+00  -3.269622000000005e-01  1.35686894e+00  -7.49126960e-01   1.83159743e+00
C     8.647082354400000e+00   6.501269558063280e-01  -5.116715999999997e-01  1.34522829e+00   6.13439940e-01   1.14607102e+00
C     1.103467750900000e+01   2.056378507770787e+00  -2.191626000000007e-01  1.35336801e+00   1.90093117e+00  -6.16640250e-01
C     2.397725022800000e+00   2.748844268459890e+00   4.865430000000000e-02  3.13019083e+00  -2.17480972e+00  -8.13045000e-02
C     3.729539971399999e+00   2.058968731209790e+00  -5.503440000000026e-02  4.81860300e-02  -7.31830200e-01  -2.52709234e+00
C     4.991912271099999e+00   2.788439403885335e+00  -2.365640999999989e-01 -3.64839464e+00   1.93097680e-01   7.35345050e-01
C     6.173564546900000e+00   2.048416136668502e+00  -4.426524000000001e-01 -6.08305430e-01   4.58134029e+00   2.25531900e-02
C     7.342046130500000e+00   2.769042529239386e+00  -5.538770999999976e-01  3.03039946e+00   1.65451400e-02   6.10214190e-01
C     8.578850710699999e+00   2.124391982414302e+00  -4.510566000000011e-01  2.08338755e+00  -2.98770038e+00  -1.39645022e+00
C     9.870303847899999e+00   2.787773190287685e+00  -3.337623000000001e-01 -2.36185755e+00   9.64399120e-01   1.33593009e+00
C     2.513635337400000e+00   4.069910651875869e+00   3.332487000000000e-01 -1.10645013e+00   7.08685508e+00  -1.09948387e+00
C     3.840783745200000e+00   4.939590425001232e+00   1.343322000000000e-01 -4.15692109e+00  -3.52260812e+00   9.31574940e-01
C     4.972435763800000e+00   4.249934511100679e+00  -1.966286999999980e-01  2.71751272e+00  -3.02077790e+00   5.70955120e-01
C     6.249799108900000e+00   4.875274171115348e+00  -3.035448000000009e-01 -2.41014151e+00   2.40995241e+00  -2.19498059e+00
C     7.452580428000000e+00   4.138831567163093e+00  -4.664045999999971e-01 -2.83728007e+00   1.77747213e+00   1.84379790e-01
C     8.619823595600000e+00   4.868622708901952e+00  -3.281442000000006e-01  1.50503231e+00  -2.06878127e+00   7.03519960e-01
C     9.852362444000001e+00   4.186811583929374e+00  -7.436430000000271e-02  1.92653359e+00   1.65829696e+00  -1.83823500e-02
C     1.108665775280000e+01   4.967526651687599e+00   2.582409000000000e-01  3.32585870e-01  -2.13640645e+00  -9.55446370e-01
C     3.740484029100000e+00   6.298326055418998e+00   1.262154000000000e-01  1.03074362e+00   3.66524313e+00  -1.98091453e+00
C     4.911958418500000e+00   7.113083596257839e+00  -3.846890999999992e-01  8.16024610e-01  -4.17586904e+00   9.71731310e-01
C     6.100352173499999e+00   6.332929883048569e+00  -5.834204999999990e-01  2.87923476e+00  -4.44728030e-01   1.43903019e+00
C     7.386732094199999e+00   7.018020073435570e+00  -6.565694999999998e-01 -1.53534836e+00   1.60205441e+00   1.39488996e+00
C     8.518688688199999e+00   6.208824331682773e+00  -2.891393999999998e-01  2.75682892e+00   7.42332194e+00  -9.91813760e-01
C     9.813549589299999e+00   7.095021027389495e+00  -1.229444999999991e-01  1.49367434e+00  -1.50075597e+00   2.88639360e-01
C     1.109042974510000e+01   6.465819941445665e+00   1.355754000000000e-01 -6.68781330e-01  -4.79668472e+00   6.83161500e-01
C     1.238970201020000e+01   6.999889192483387e+00   1.256865000000000e-01 -1.71995867e+00   4.21252489e+00  -1.70410720e+00
