64
Lattice="7.10842262195238 0 0 0 7.10842262195238 0 0 0 7.10842262195238 " PBC="1 1 1" Properties=species:S:1:pos:R:3:force:R:3 Energy="-512.72528716"
C     7.082726667407867e+00   7.062259883747684e+00   7.042624714449815e+00  1.03776738e+00   1.43083800e+00   3.11886759e+00
C     1.776102798736770e+00   1.771731260993923e+00   3.615357961377240e-02 -8.07545570e-01   5.56509670e-01  -1.16714961e+00
C     1.198608005339160e-02   1.745333707089195e+00   1.774613086608297e+00 -7.75318810e-01   8.20296820e-01   1.81661210e-01
C     1.814521832639537e+00   2.750675217035200e-03   1.762829596599575e+00 -1.16631820e+00  -1.54448191e+00   5.25065010e-01
C     8.603030319131794e-01   8.463112393333285e-01   9.190906821597461e-01  1.37502448e+00   9.13539310e-01  -1.82718117e+00
C     2.669720235185068e+00   2.695759666758200e+00   8.768974312668908e-01 -6.53976400e-01  -1.95399158e+00   1.38858048e+00
C     9.021988664036139e-01   2.668213960431890e+00   2.654727932121452e+00  2.19130540e-01  -1.39609771e+00   1.28956380e-01
C     2.676136937199916e+00   8.477619973058443e-01   2.676638365331530e+00 -1.12573920e-01   1.78426416e+00  -1.30620844e+00
C     3.562643249827618e+00   4.890232233006380e-02   7.081763973732440e+00 -4.54890300e-01  -8.14994270e-01   1.28481876e+00
C     5.352762649539183e+00   1.797339637819377e+00   2.628616492227180e-02 -8.31545200e-02  -1.44563520e-01  -1.56856182e+00
C     3.538137389350525e+00   1.786133991485436e+00   1.786676293047115e+00  7.30494670e-01  -3.75149100e-02  -2.87967720e-01
C     5.340355537614008e+00   7.080699629613547e+00   1.778874301632082e+00 -6.85045720e-01   5.43768680e-01  -4.58045630e-01
C     4.447947670358730e+00   9.201338431792311e-01   8.912953280310221e-01  2.45617090e-01  -5.05458480e-01   5.56199500e-02
C     6.223761298463319e+00   2.708248454459278e+00   8.593157430954876e-01 -2.31360680e-01  -1.84185796e+00   2.48816305e+00
C     4.427889834251876e+00   2.657926437963547e+00   2.700248280221599e+00 -7.95100870e-01   5.58988410e-01  -1.31072734e+00
C     6.232990447887770e+00   8.238971032963970e-01   2.674228752231803e+00 -9.53119760e-01   2.21349492e+00  -1.18355666e+00
C     7.099555076034228e+00   3.565209390393438e+00   1.527884357942800e-03 -2.62314490e-01   5.58185610e-01   3.96056360e-01
C     1.803910450436627e+00   5.371437897446447e+00   7.089188152485220e+00 -7.14632180e-01  -1.09274333e+00   1.25218787e+00
C     3.930531203502800e-03   5.371887505177162e+00   1.771552199828125e+00  2.92073940e-01  -2.22675027e+00   4.20257400e-02
C     1.792104782149331e+00   3.529871431191084e+00   1.799028527949663e+00 -1.23258729e+00   1.80302258e+00  -9.66971750e-01
C     8.570517815752438e-01   4.471333741020494e+00   9.185423384388395e-01  1.61919610e+00  -7.55973870e-01  -1.63976265e+00
C     2.699108373570255e+00   6.197483166058608e+00   9.024186588310242e-01 -6.94136760e-01   1.50813189e+00  -1.48106692e+00
C     9.140140599772208e-01   6.185934467249025e+00   2.622988754038926e+00 -7.03854500e-02   1.58059437e+00   2.19157220e+00
C     2.639646631606634e+00   4.449718023012241e+00   2.668575565890569e+00  1.08281719e+00  -1.05798122e+00   8.65234920e-01
C     3.526745502343939e+00   3.542212434785892e+00   2.032319352325860e-02  1.98501241e+00   1.37832420e-01  -1.01350414e+00
C     5.328782172577935e+00   5.357385541105874e+00   3.385670609679799e-02 -6.47655840e-01  -1.97576415e+00  -2.09550720e-01
C     3.534688169442622e+00   5.293617303466378e+00   1.765608421170186e+00  6.66510820e-01   8.53296680e-01   7.16894370e-01
C     5.298921253004290e+00   3.573561573719259e+00   1.842461985337030e+00  1.48823526e+00  -9.80605910e-01  -2.39601560e+00
C     4.445223011968483e+00   4.391930385659855e+00   9.080950897142254e-01 -8.92295650e-01   1.96855908e+00   9.27406900e-02
C     6.232288775490949e+00   6.179931759767566e+00   9.034481005948528e-01 -8.31920970e-01   1.87547000e+00  -1.27664361e+00
C     4.401760552216827e+00   6.223856480242200e+00   2.661168447352077e+00  1.47840254e+00  -9.12234240e-01  -4.88445370e-01
C     6.232478357122225e+00   4.465866084509643e+00   2.638908137580642e+00 -3.08868550e-01  -4.74935450e-01   1.48240835e+00
C     7.091805615862357e+00   7.071692476227519e+00   3.536738949368492e+00  1.83495092e+00   8.00013630e-01   3.29664190e-01
C     1.805092438949881e+00   1.743401708905306e+00   3.523753567263181e+00 -1.11460817e+00   5.49348460e-01   8.11170700e-01
C     1.668474740521160e-02   1.740313525782273e+00   5.300741364616141e+00 -9.34912280e-01   1.64538293e+00   5.34782290e-01
C     1.762228152961697e+00   3.239286862666139e-02   5.336770120328707e+00  9.23241400e-01  -4.44210750e-01  -8.69708680e-01
C     9.223624758390536e-01   8.931149420532898e-01   4.433477054431195e+00 -1.53413622e+00  -7.00600380e-01  -7.66380360e-01
C     2.656699026629752e+00   2.609290326060603e+00   4.420188284848463e+00 -1.41983190e-01   2.47326093e+00   1.08768698e+00
C     8.785738816575915e-01   2.678937655712196e+00   6.247920978758818e+00 -3.29016740e-01  -4.54530650e-01  -7.19255870e-01
C     2.631701405475807e+00   9.262039385071277e-01   6.188432082620787e+00  1.51313590e+00  -5.84795220e-01   1.41923293e+00
C     3.557450191682577e+00   1.214729907841320e-02   3.534130016098500e+00  2.68388010e-01  -9.31032010e-01   1.72517581e+00
C     5.292117141956653e+00   1.765704029454425e+00   3.489267268174930e+00  1.54261646e+00  -8.56333740e-01   2.77882095e+00
C     3.555867003796650e+00   1.781543940831249e+00   5.302499348614293e+00  5.17089720e-01   1.64593440e-01   1.17125562e+00
C     5.359235579176954e+00   3.168366130186400e-03   5.332698060430840e+00 -1.28046242e+00   5.14562000e-03  -1.11933220e-01
C     4.473253583801704e+00   8.983384242471444e-01   4.466676515772549e+00 -1.37701806e+00  -6.68055420e-01  -1.62577227e+00
C     6.156998922132052e+00   2.625047779735035e+00   4.397135385954899e+00  3.13909207e+00   1.79965808e+00   7.09009770e-01
C     4.485737111270043e+00   2.678691562121091e+00   6.217247211058577e+00 -1.82545267e+00   8.82778100e-02  -2.29759010e-01
C     6.238223028862578e+00   8.729214772428462e-01   6.198615182360842e+00 -2.06524040e-01   3.50634560e-01   5.74017870e-01
C     3.769781334374120e-02   3.545441862266384e+00   3.532120180686921e+00 -1.55536621e+00   4.79117780e-01   4.98793100e-01
C     1.817433016039331e+00   5.339352254845422e+00   3.593686655504098e+00 -1.94597390e+00  -1.25917900e-01  -1.70365715e+00
C     2.477285283070000e-04   5.322896825153932e+00   5.333722881719965e+00 -2.80061680e-01   1.33970806e+00  -7.72255300e-02
C     1.735956702474249e+00   3.585426099745849e+00   5.374313396564689e+00  1.27016883e+00  -1.71217598e+00  -1.25463895e+00
C     8.884223168606968e-01   4.480803368382180e+00   4.458359661307149e+00  4.54471100e-02  -1.66887797e+00  -8.70750100e-02
C     2.656515487157704e+00   6.238902309728145e+00   4.443683611965897e+00  1.05085335e+00  -1.72819940e-01   9.37557800e-01
C     9.222665121336836e-01   6.267256670211706e+00   6.217701154927091e+00 -1.17930644e+00  -2.10147361e+00  -6.47379570e-01
C     2.670999893425120e+00   4.422532002870503e+00   6.235449535608932e+00 -3.82819770e-01   9.29135890e-01  -1.55535150e-01
C     3.519152356385482e+00   3.543096580391368e+00   3.589934119203000e+00  8.59316600e-01   2.96701040e-01  -9.58594160e-01
C     5.323183081332838e+00   5.329156431028877e+00   3.533073064739132e+00 -2.72082460e-01   7.56856810e-01   4.02833060e-01
C     3.560970424732453e+00   5.308174784318328e+00   5.365330056394438e+00 -1.45240970e-01   1.55400279e+00  -7.69935140e-01
C     5.360221019804765e+00   3.615033319716185e+00   5.315033061546330e+00 -1.71545584e+00  -2.61617032e+00  -1.24115620e-01
C     4.432646293079597e+00   4.467567414379514e+00   4.429077367334774e+00  2.08559590e-01  -7.06281380e-01   8.77807630e-01
C     6.208018345971031e+00   6.241213329006134e+00   4.415862809684193e+00  3.33031600e-01  -1.64692303e+00   1.11017566e+00
C     4.429398099363388e+00   6.242673541180734e+00   6.272205838376655e+00  9.41787030e-01  -4.45236390e-01  -1.83737274e+00
C     6.183547814354359e+00   4.444023039146002e+00   6.235300116565460e+00  1.97974094e+00   1.22730222e+00  -6.34624950e-01
