64
Lattice="9.86 0 0 4.93 8.53901048131456 0 0 0 30 " PBC="1 1 1" Properties=species:S:1:pos:R:3:force:R:3 Energy="-511.36569477"
C     5.037941265400000e+00   7.965749647172117e+00  -1.167834000000028e-01  1.21547159e+00   4.02383625e+00   6.64124410e-01
C     1.391561322800000e+00   2.612464145699408e-01  -4.532489999999711e-02 -2.75086698e+00  -5.21260763e+00  -1.26081952e+00
C     9.773205772399999e+00   5.494691002680880e-01   3.524562600000000e+00 -1.02338321e+00  -1.60523758e+00  -4.22764490e-01
C     1.129141465400000e+00   1.219720112852842e+00   3.559122600000000e+00  1.63533314e+00  -5.88230250e-01  -1.36370890e-01
C     7.477441875700000e+00   8.013842293486629e+00  -2.063880000000005e-01  2.25349911e+00   2.76685822e+00   1.34613842e+00
C     3.816497234100000e+00   2.213992075551256e-01  -1.366443000000004e-01 -1.38699323e+00  -2.05528917e+00   9.40612630e-01
C     2.353541721900000e+00   5.370772028694072e-01   3.362375100000000e+00  8.69309890e-01  -2.29925393e+00   1.65407050e-01
C     3.562662922399999e+00   1.229383711013058e+00   3.286272900000000e+00  9.87507790e-01   1.92904046e+00  -1.65416500e-02
C     9.981826758299999e+00   7.979327100785842e+00   3.379080000000000e-02 -1.71003109e+00   3.36849024e+00  -1.72164611e+00
C     6.247197005599999e+00   1.681119396052096e-01  -1.242432000000022e-01  2.19893422e+00  -5.91348480e-01   9.99496250e-01
C     4.804394347400001e+00   5.113439554967744e-01   3.151879200000000e+00  1.60658590e-01   1.22327217e+00   1.83456806e+00
C     6.036682505300000e+00   1.206886919392554e+00   3.340811400000000e+00  5.19349630e-01   1.32136634e+00  -4.81772100e-02
C     1.245147688220000e+01   8.015674508965324e+00  -1.366499999999995e-01 -7.40486140e-01  -1.61100857e+00   1.51407317e+00
C     8.781102678900000e+00   1.340844097929336e-01  -3.133619999999837e-02 -2.45094184e+00   3.53290296e+00  -1.35550983e+00
C     7.285923799300000e+00   5.593771702983464e-01   3.438764100000000e+00  1.33611175e+00  -1.38068844e+00   1.81196870e-01
C     8.564124603500000e+00   1.234533332063231e+00   3.616064100000000e+00 -3.15804563e+00   1.27003341e+00  -1.26664815e+00
C     1.337186085000000e+00   1.611834889698634e+00   8.580600000000001e-03 -2.03695242e+00   2.42979085e+00  -7.81670410e-01
C     2.525049421300000e+00   2.312009583658975e+00   6.461489999999999e-02  2.00010822e+00   1.65561736e+00  -1.80507940e-01
C     1.101738016030000e+01   2.589229071232804e+00   3.697268400000000e+00  3.56401240e-01   2.66365876e+00  -6.83455800e-02
C     2.411942994900000e+00   3.401890797339434e+00   3.706961400000000e+00 -1.37854777e+00  -4.10939860e-01  -1.68918885e+00
C     3.736839526600000e+00   1.617211904597889e+00   2.676240000000000e-02  3.67728532e+00  -1.06742826e+00  -2.62545500e-01
C     5.104333181000000e+00   2.232505504172944e+00   8.196240000000000e-02 -6.51853726e+00   4.85052269e+00  -3.54255240e-01
C     3.617659833200000e+00   2.719032704291904e+00   3.415881000000000e+00 -1.02872164e+00  -2.97159864e+00   3.46642770e-01
C     4.866836839999999e+00   3.350154384472896e+00   3.324019500000000e+00 -1.29125366e+00   1.53167820e+00   1.77455580e-01
C     6.254712642699999e+00   1.590714586567506e+00  -4.257150000000109e-02  2.25210641e+00  -1.75033365e+00  -4.88462110e-01
C     7.465032868499999e+00   2.341730121975244e+00  -1.025819999999982e-01  1.07795243e+00  -2.45114653e+00  -4.24980670e-01
C     6.071257433400000e+00   2.636201057811922e+00   3.406800300000000e+00 -9.01368760e-01   9.69235000e-03  -5.42067150e-01
C     7.232876309099999e+00   3.409260988064932e+00   3.460383900000000e+00  2.91177568e+00  -2.05696896e+00  -6.20587360e-01
C     8.707841547800001e+00   1.665419912943987e+00  -9.588270000000065e-02  1.61215191e+00  -2.25555537e+00  -2.50859100e-01
C     9.950495080000000e+00   2.382708747878659e+00  -1.506012000000005e-01  4.26348700e-02  -9.66531680e-01   2.03120280e+00
C     8.497844500299999e+00   2.671911968150225e+00   3.535446300000000e+00 -6.34497060e-01  -2.01729884e+00   7.77711540e-01
C     9.744438482900000e+00   3.237649932745228e+00   3.618867300000000e+00  1.25689483e+00   4.41770551e+00   1.41580610e-01
C     2.589854813600000e+00   3.746476844122813e+00   9.715740000000000e-02 -1.82631331e+00  -9.98081320e-01   1.02945907e+00
C     3.779756951400000e+00   4.446951001180688e+00   1.685193000000000e-01  1.98335850e+00  -5.52239100e-02  -5.04847550e-01
C     1.223660736780000e+01   4.852130122500460e+00   3.576438600000000e+00 -2.54775141e+00  -1.13501851e+00   9.27964050e-01
C     3.539900126400000e+00   5.555980945862546e+00   3.423107100000000e+00  3.93093022e+00  -2.25989572e+00  -7.42115070e-01
C     5.015552212699999e+00   3.723519458277018e+00   6.318780000000000e-02  1.83354274e+00  -4.94611690e-01   4.94469900e-01
C     6.277622402000000e+00   4.450790140292495e+00  -7.366499999999832e-03 -5.01518470e-01   3.63606640e-01  -5.47975750e-01
C     4.806405146500000e+00   4.768556521399872e+00   3.264441900000000e+00  1.07949526e+00   2.32772291e+00   1.04858229e+00
C     6.082947350800000e+00   5.529475003431579e+00   3.250681200000000e+00 -1.63152794e+00  -7.69601940e-01  -7.72310720e-01
C     7.504215177399999e+00   3.701701176429256e+00  -2.037773999999999e-01 -9.69869880e-01   2.73120396e+00   1.64696193e+00
C     8.718609604499999e+00   4.432891093474844e+00  -7.777499999999904e-02  3.18963660e-01   1.95816348e+00   4.79830100e-02
C     7.304490623000000e+00   4.780321996989739e+00   3.246358500000000e+00 -4.40561840e-01   2.13206856e+00   8.50895170e-01
C     8.578888622399999e+00   5.495228106440072e+00   3.294200700000000e+00 -1.14852817e+00  -2.45409516e+00   4.41990770e-01
C     9.987496061100000e+00   3.821596312507574e+00   4.455540000000000e-02 -2.07890105e+00  -3.89981510e+00  -1.19144206e+00
C     1.120406599860000e+01   4.423738213531437e+00   1.837950000000000e-01  8.41701050e-01   2.81745442e+00  -6.14815370e-01
C     9.723792185200001e+00   4.699362613947602e+00   3.564010800000000e+00  2.34990179e+00   2.22926458e+00  -5.30997470e-01
C     1.096313975800000e+01   5.550422562380696e+00   3.600054300000000e+00 -3.55131730e-01  -2.47337221e+00   7.90431100e-02
C     3.794719945100000e+00   5.888511788430471e+00   1.432623000000000e-01 -9.62995940e-01  -1.50853291e+00  -1.00219690e+00
C     4.939181139000000e+00   6.615134871891145e+00  -1.154127000000003e-01  5.38896774e+00  -3.00415552e+00   1.65689554e+00
C     1.348871875990000e+01   6.938261531437236e+00   3.376656900000000e+00 -1.87032077e+00   1.87865027e+00  -3.02938480e-01
C     4.809650023200000e+00   7.677886283034968e+00   3.289309800000000e+00  2.57233918e+00  -3.50197180e-01   7.68101080e-01
C     6.313029859200000e+00   5.902143550150848e+00   1.478070000000000e-02 -4.04103401e+00  -1.03422884e+00  -1.34620916e+00
C     7.487245920199999e+00   6.627467252386780e+00  -9.193110000000004e-02 -1.32819300e-01  -1.46766169e+00  -2.30138310e-01
C     6.089618084500000e+00   6.972406643423822e+00   3.222781500000000e+00 -1.13949287e+00  -1.59446943e+00   5.26888760e-01
C     7.343306287800000e+00   7.586491375285223e+00   3.296324700000000e+00 -4.37403990e-01   2.71922405e+00  -9.29226560e-01
C     8.686435290600000e+00   5.874890785863299e+00  -4.053479999999965e-02  4.79839860e-01   1.71500450e-01   5.93244700e-02
C     9.890456011700000e+00   6.620408991714117e+00   5.128110000000000e-02  2.54198133e+00  -3.87433419e+00   1.35007750e-01
C     8.594327163899999e+00   6.894511740462746e+00   3.211031100000000e+00 -1.50474911e+00   8.65060760e-01   1.16958683e+00
C     9.766671106699999e+00   7.666244623097060e+00   3.353097900000000e+00 -5.61237950e-01  -7.64367840e-01  -1.00787546e+00
C     1.116502005350000e+01   5.850857484697025e+00   1.380453000000000e-01  2.55594290e-01   1.21552420e+00   2.12569400e-02
C     1.242995753080000e+01   6.545555598895914e+00   7.948170000000000e-02 -1.85532452e+00   2.22103643e+00  -5.26130230e-01
C     1.095212737050000e+01   6.962251881380795e+00   3.522561900000000e+00  2.88849669e+00   9.75695700e-02  -9.47442020e-01
C     1.225974163930000e+01   7.684128214305743e+00   3.389490000000000e+00 -1.81098805e+00  -1.27098490e+00   1.09130713e+00
