64
Lattice="9.86 0 0 4.93 8.53901048131456 0 0 0 30 " PBC="1 1 1" Properties=species:S:1:pos:R:3:force:R:3 Energy="-512.55452753"
C     4.966135815400000e+00   8.279238923320165e+00  -5.566073999999972e-01 -6.13885630e-01  -1.38906400e-02  -5.70982780e-01
C     1.261520346400000e+00   4.474094807694512e-01  -5.966576999999980e-01  7.63389610e-01   1.13147370e-01   1.04057400e-01
C     9.871417534899999e+00   2.357134923831688e-01   4.109461800000000e+00 -3.95720193e+00  -3.53179010e-01  -7.26663620e-01
C     1.146650508300000e+00   9.693618759360536e-01   4.063730700000000e+00  2.18455837e+00   4.34489490e-01   2.45482620e-01
C     7.425388618600000e+00   8.266838743081319e+00  -5.226293999999996e-01  3.83734110e-01   6.33800990e-01  -7.92696760e-01
C     3.726184514799999e+00   4.488537690020384e-01  -6.644073000000006e-01  1.90955700e-02  -8.72977900e-02   7.26129040e-01
C     2.362910200900000e+00   2.589349898231096e-01   4.141503000000000e+00  2.30262633e+00   6.16175580e-01  -4.16843110e-01
C     3.661142038800000e+00   9.320825201527839e-01   4.128003900000000e+00 -6.01217300e-01  -1.99723370e-01   1.31724080e-01
C     9.891581382800000e+00   8.266448851862801e+00  -6.827936999999977e-01  6.34999800e-02   3.75537543e+00  -2.35635440e-01
C     6.176217133400000e+00   4.900722557098368e-01  -7.330125000000010e-01  1.43767924e+00  -4.49612290e-01  -3.98978000e-03
C     4.906212404900000e+00   2.166916510775016e-01   4.205208900000000e+00 -1.05857239e+00   1.34399454e+00  -1.01002217e+00
C     6.100622041699999e+00   9.647788182312280e-01   4.119802500000000e+00  1.77919533e+00   4.72917730e-01   8.65854090e-01
C     1.232649881860000e+01   8.299511729661152e+00  -7.614812999999998e-01  1.39031757e+00  -1.38576137e+00   6.82830930e-01
C     8.645560956399999e+00   4.572219992724384e-01  -6.072303000000012e-01 -1.73687310e-01  -1.19797968e+00  -1.44886800e-01
C     7.381566390899999e+00   2.674336961736440e-01   4.145682000000000e+00 -1.42137450e+00  -1.44778563e+00  -8.61836290e-01
C     8.620438021500000e+00   9.209344150206199e-01   4.114483800000000e+00 -2.10812740e-01   2.60885449e+00  -8.04230440e-01
C     1.309794955700000e+00   1.869630775523711e+00  -7.934951999999988e-01 -9.34458540e-01  -1.95587240e-01   6.52269670e-01
C     2.526824270600000e+00   2.590679934503461e+00  -8.550882000000009e-01 -1.12701900e-01   2.92098170e-01   2.27887030e-01
C     1.098421531080000e+01   2.376469976041762e+00   4.021026900000000e+00  3.21928605e+00   9.49502110e-01  -9.74323800e-02
C     2.407064907800000e+00   3.076002451023902e+00   4.085300100000000e+00  2.01705320e-01  -9.76786600e-01  -3.36719460e-01
C     3.775768827899999e+00   1.898381623809871e+00  -7.077951000000020e-01 -2.70535251e+00  -1.86401847e+00  -4.67641520e-01
C     4.927800727000000e+00   2.598394076571093e+00  -6.635106000000022e-01  4.16056289e+00   1.96110372e+00  -9.84747650e-01
C     3.681676129700000e+00   2.336330222527902e+00   4.057773900000000e+00 -1.41033314e+00   1.54078904e+00   2.42184210e-01
C     4.893126853800000e+00   3.102375697232011e+00   4.057406700000000e+00 -2.43739300e-01  -1.34744590e+00   4.49101550e-01
C     6.270636493400000e+00   1.915528213024026e+00  -7.150281000000014e-01 -4.35952769e+00  -3.31133230e-01   1.17907580e+00
C     7.444187842499999e+00   2.627874583302769e+00  -5.829149999999998e-01  1.47169342e+00  -5.91404590e-01  -8.42501070e-01
C     6.110717399900000e+00   2.402189560997626e+00   4.158982500000000e+00  1.65904418e+00  -5.30892550e-01  -3.50024340e-01
C     7.426201131899999e+00   3.103204408199095e+00   4.181286900000000e+00 -2.59689425e+00  -1.29804418e+00  -1.32657733e+00
C     8.666699613200000e+00   1.841011171828629e+00  -5.481480000000012e-01  1.04797360e+00   2.99361989e+00  -1.17422602e+00
C     9.938847067599999e+00   2.578815833342549e+00  -7.490787000000019e-01 -1.49284398e+00   2.84700280e-01   1.26861037e+00
C     8.611259594000000e+00   2.413088156243564e+00   3.972679200000000e+00  2.27323980e-01  -2.45786223e+00   1.29896968e+00
C     9.830206629600001e+00   3.128026372373302e+00   3.924326400000000e+00 -1.42844870e+00   5.72086670e-01   7.90161020e-01
C     2.470777713500000e+00   4.006026130359854e+00  -9.595248000000005e-01  1.89338080e+00   1.20601798e+00   4.75621770e-01
C     3.772134579800000e+00   4.778255214893160e+00  -9.302421000000010e-01 -3.33058848e+00  -3.27110395e+00  -1.21930400e-01
C     1.228900138650000e+01   4.490408501826447e+00   4.138451700000000e+00 -3.40555330e-01   9.60412550e-01  -3.80724100e-01
C     3.682976269299999e+00   5.208907826886763e+00   4.153139100000000e+00 -1.50880781e+00   5.69069120e-01  -3.69244410e-01
C     4.927354857800000e+00   4.063378821199298e+00  -7.618410000000004e-01  2.20222990e+00  -2.24723664e+00   9.34312100e-01
C     6.183458268099999e+00   4.734336607681481e+00  -5.748968999999988e-01  6.97110490e-01   2.83180600e-02  -1.90532572e+00
C     4.895422212500000e+00   4.504283369175190e+00   4.084718700000000e+00  1.52081100e-01   3.62990300e-02   1.14773707e+00
C     6.126008238599999e+00   5.161818172743232e+00   4.270918800000000e+00  1.88833420e-01   2.50927831e+00  -1.81273135e+00
C     7.441185965500000e+00   4.053270255202968e+00  -6.939263999999987e-01 -4.51517640e-01  -1.30153385e+00   1.38781486e+00
C     8.696600359000000e+00   4.700465683321408e+00  -7.215375000000002e-01 -2.30746619e+00   2.78440514e+00   4.05590340e-01
C     7.399348703699999e+00   4.492549573314202e+00   4.130242800000000e+00 -2.06892075e+00   1.67085760e+00   1.19832457e+00
C     8.537650996499998e+00   5.287239414843786e+00   4.132817400000000e+00  2.85097178e+00  -5.32760910e-01  -5.82927120e-01
C     9.889371756799999e+00   4.040175768021993e+00  -6.998810999999989e-01  2.39349347e+00  -2.35456813e+00  -1.33721242e+00
C     1.112199421800000e+01   4.755621884495082e+00  -8.685665999999976e-01 -3.55512700e-02  -1.16892566e+00  -3.62667150e-01
C     9.810006398300001e+00   4.559291503907140e+00   4.053642600000000e+00 -2.07074880e-01   2.94549730e-01  -1.39793800e-01
C     1.104665316920000e+01   5.249439350201446e+00   4.116986100000000e+00  2.25747370e-01  -9.49634000e-03   3.31027160e-01
C     3.736964157000000e+00   6.131718262509840e+00  -9.110052000000017e-01  2.20045379e+00   2.63074479e+00   1.42353563e+00
C     4.972858905699999e+00   6.863497029718128e+00  -6.546410999999992e-01  1.77677670e-01  -4.46302220e-01  -4.88801520e-01
C     1.348353254780000e+01   6.641664552771248e+00   4.141836000000000e+00  3.45676440e-01  -1.14429860e-01  -9.59430120e-01
C     4.855208794099999e+00   7.378163001852043e+00   4.057668600000000e+00  9.31786400e-01  -2.04319265e+00   1.39809788e+00
C     6.227121749800000e+00   6.146730355274309e+00  -6.237239999999993e-01 -2.09932440e+00   2.32867300e-02   8.32346330e-01
C     7.437327106600000e+00   6.833880411159401e+00  -5.194146000000011e-01  9.88540940e-01   8.76379830e-01  -8.04122440e-01
C     6.072053184700000e+00   6.634996524877520e+00   4.188254700000000e+00  1.80576856e+00  -5.34848800e-01  -2.93057020e-01
C     7.343449405699999e+00   7.397550995927092e+00   4.143364800000001e+00 -1.94820766e+00  -8.92255350e-01   4.50057680e-01
C     8.659039970799999e+00   6.145663662085147e+00  -6.950372999999992e-01  2.43046923e+00   5.61654280e-01   6.16326300e-01
C     9.965575752800000e+00   6.926181478701285e+00  -7.276455000000013e-01 -2.55586451e+00  -4.73373021e+00  -6.35530090e-01
C     8.579725194100000e+00   6.722841936750940e+00   4.141273800000000e+00 -7.94830030e-01  -2.19875959e+00   2.83441740e-01
C     9.829146531699999e+00   7.352487563580358e+00   4.169423100000000e+00 -1.52653102e+00   1.77995736e+00   3.10778010e-01
C     1.116865656940000e+01   6.169324064663760e+00  -9.322883999999974e-01 -1.07353150e+00  -1.71210170e-01   1.43006721e+00
C     1.239863521950000e+01   6.809303858146389e+00  -8.256054000000006e-01 -1.42165346e+00   3.61949782e+00  -1.05236358e+00
C     1.102632825820000e+01   6.709951190360018e+00   4.186854900000000e+00  1.00130266e+00  -4.18003637e+00  -9.54974010e-01
C     1.223935692740000e+01   7.334034847323184e+00   4.043405700000000e+00  2.22042470e+00   2.76047902e+00   1.79813106e+00
