72
Lattice="7.395 0 0 3.6975 6.40425786098592 0 0 0 13.6 " PBC="1 1 1" Properties=species:S:1:pos:R:3:force:R:3 Energy="-582.04213075"
C     3.703225319925000e+00   6.256384890906751e+00   5.035087200000000e-02 -1.13059300e-02  -1.34346944e+00   3.81335360e-01
C     1.209596008800000e+00   5.799127219918032e-01   4.033759999999999e-02  9.31915180e-01  -1.12070032e+00  -8.16958500e-02
C     1.336785756675000e+00   9.123216915326514e-01   3.346366088000000e+00  3.25344860e-01  -9.41110300e-02  -1.14398800e-01
C     2.558930895600000e+00   1.649009172957947e+00   3.212941384000000e+00 -3.61458170e-01  -3.78970720e-01   6.00449160e-01
C     6.126154955399999e+00   6.249601565024018e+00   1.328397680000000e-01  1.46412477e+00   1.01658440e-01  -1.87446010e-01
C     3.695938508774999e+00   5.698844867365650e-01   9.122621600000000e-02 -1.04840592e+00  -4.31700360e-01   6.12933800e-02
C     3.757801196400000e+00   8.919266279091169e-01   3.289501088000000e+00  3.11466260e-01   6.36038890e-01   2.60995720e-01
C     4.975651873950000e+00   1.592904800060574e+00   3.393140296000000e+00  1.73024241e+00   4.57667710e-01   2.38942470e-01
C     8.611476908400000e+00   6.242218352307538e+00   1.793578880000000e-01  3.44108040e-01   5.55043700e-02  -3.39721070e-01
C     6.189521305350000e+00   5.281125227169793e-01   1.604358000000000e-01 -2.27971281e+00   9.00323560e-01  -4.32210080e-01
C     6.244910262075000e+00   9.252653370934973e-01   3.513632352000000e+00  5.50531350e-01  -1.57987374e+00  -5.00629900e-01
C     7.513679692800000e+00   1.623766662517599e+00   3.398043096000000e+00 -1.90655661e+00  -1.40354192e+00   2.45217640e-01
C     1.219728896625000e+00   1.979363912747622e+00   1.356737074400000e+01  1.24236730e-01   6.25974010e-01   4.99519940e-01
C     2.464289574675000e+00   2.704920986139973e+00   1.350840944000000e+01 -1.31980567e+00   2.76884380e-01   3.49470180e-01
C     2.569185172350000e+00   3.090889788845259e+00   3.236616264000000e+00 -1.20706122e+00  -6.77941050e-01   4.92001880e-01
C     3.803565190875000e+00   3.786420563303578e+00   3.392475936000000e+00 -4.08760200e-02  -2.08626782e+00  -1.55564010e-01
C     3.683657891099999e+00   2.004122965762117e+00   1.357174559200000e+01  1.20361470e-01  -1.18803746e+00   4.91979820e-01
C     4.908390577500000e+00   2.678046862924633e+00   1.210038240000000e-01  4.39286190e-01   1.50853760e-01  -1.94354700e-01
C     5.016101821425000e+00   3.008800203723514e+00   3.421284952000000e+00 -1.11242160e-01   1.21742967e+00  -1.79234490e-01
C     6.271013022149999e+00   3.717511709368657e+00   3.424856584000000e+00 -1.94759196e+00   5.13240000e-01  -1.44955080e-01
C     6.138071110499999e+00   1.969454540518265e+00   1.773200640000000e-01  6.43420090e-01  -9.82553220e-01  -2.19417990e-01
C     7.374713703225000e+00   2.659655691585493e+00   1.287483440000000e-01  1.11946760e-01   1.14116043e+00  -2.32679860e-01
C     7.454097512250000e+00   3.006301454434278e+00   3.331508632000000e+00  2.30934459e+00   1.68575823e+00   1.32836500e-02
C     8.678898084749999e+00   3.775022201121772e+00   3.271549496000000e+00  1.47564674e+00  -7.01799710e-01   6.40131820e-01
C     2.416247254650000e+00   4.136759149319597e+00   1.356639644000000e+01  1.54485559e+00  -9.06592710e-01   4.63317980e-01
C     3.698317517250000e+00   4.804735796463003e+00   1.378985600000000e-02 -8.83444600e-01   1.02496895e+00   3.18993640e-01
C     3.806730066000000e+00   5.165466635751022e+00   3.514749864000000e+00  3.07426880e-01   1.36609057e+00  -3.24357980e-01
C     5.038125832275000e+00   5.884977641425484e+00   3.437023008000000e+00  3.43323930e-01   2.99968400e-02  -2.16315000e-02
C     4.916057232825000e+00   4.087365478020825e+00   1.424538800000000e-01  1.40939440e-01   7.63179020e-01  -2.22486830e-01
C     6.153797317500000e+00   4.812579091064145e+00   2.502364640000000e-01 -8.80634940e-01   5.39061060e-01  -7.87910860e-01
C     6.271040050874999e+00   5.154517724385831e+00   3.387643448000000e+00 -2.41469090e-01   1.38476910e-01   2.95170100e-02
C     7.495655119799999e+00   5.890348444194615e+00   3.343493224000000e+00 -8.45293260e-01  -3.75321630e-01   3.46452140e-01
C     7.374782994375000e+00   4.097902659648198e+00   2.046495360000000e-01 -4.61579230e-01  -4.98610550e-01  -2.06594490e-01
C     8.577374015475000e+00   4.808899012370053e+00   1.497229440000000e-01  1.02954833e+00   1.01091924e+00  -4.94680810e-01
C     8.722290096000000e+00   5.191549769078073e+00   3.424580776000000e+00  9.50734200e-02  -6.67385010e-01  -3.26440590e-01
C     9.974619110625000e+00   5.863338806882957e+00   3.547119768000000e+00 -8.53325810e-01   1.77630050e+00  -5.92562220e-01
C     7.439610707249999e+00   1.084603336692876e-01   6.827579439999999e+00 -1.12702844e+00   8.21562280e-01   8.52506600e-02
C     1.257902589150000e+00   8.396434195064917e-01   6.757639128000000e+00  1.06086500e-02   3.57897060e-01  -2.84332300e-02
C     1.136921646300000e+00   5.582422504154496e-01   1.017218922400000e+01 -4.57292960e-01  -5.48481880e-01  -2.30826110e-01
C     2.379810758550000e+00   1.260871824498687e+00   9.973567480000000e+00 -1.30391532e+00  -2.81559630e-01   7.59053440e-01
C     2.493967817250000e+00   1.216669380578652e-01   6.790751320000000e+00  2.85189000e-03   7.80990510e-01   1.87474500e-02
C     3.767049494325000e+00   8.039088774566850e-01   6.773105320000000e+00 -8.89619900e-01   6.87429520e-01   1.00759420e-01
C     3.587870640975000e+00   5.511995520893862e-01   1.003017040800000e+01  4.72640560e-01  -9.31392820e-01   4.47278070e-01
C     4.805130384074999e+00   1.239665341404290e+00   1.011795160800000e+01  1.23630735e+00   9.37474370e-01   2.53072810e-01
C     5.009344455299999e+00   1.263352577823336e-01   6.897750952000000e+00 -1.47530343e+00  -5.06187310e-01  -5.00651210e-01
C     6.195439043174999e+00   8.559135006424002e-01   6.873935720000000e+00  1.68596744e+00  -2.17433300e-01  -5.38833140e-01
C     6.076241589449999e+00   5.633172405140281e-01   1.026090216000000e+01 -7.92526130e-01   5.36396310e-01  -5.05815760e-01
C     7.298446073250000e+00   1.280148128316658e+00   1.025725409600000e+01  7.24902820e-01  -2.55036850e-01  -4.09569650e-01
C     8.623908716850000e+00   2.293289169423252e+00   6.690551008000000e+00  6.23723600e-01  -1.92305458e+00   1.39478420e-01
C     2.469567016425000e+00   2.940747406936739e+00   6.671542968000000e+00  1.43471880e+00   1.08225630e-01   1.76678810e-01
C     2.372547093750000e+00   2.667713080526894e+00   9.956995200000000e+00 -4.94726310e-01   1.29636629e+00   7.68047090e-01
C     3.611118746175000e+00   3.390794844213778e+00   1.002703533600000e+01 -1.24185776e+00   2.30665680e-01   3.38518470e-01
C     3.746856929175000e+00   2.234066755501581e+00   6.685520503999999e+00 -1.26445294e+00  -2.97152490e-01   4.30689080e-01
C     4.945199448825000e+00   2.963219691597165e+00   6.758803560000000e+00  7.85448970e-01   5.28454710e-01   4.81136000e-03
C     4.814983149300000e+00   2.668819736285103e+00   1.011785572800000e+01  1.24336630e+00   3.92530130e-01   6.73687000e-02
C     6.083454487575001e+00   3.395331492396644e+00   1.021565849600000e+01 -1.53212355e+00  -2.82735500e-01  -9.05267100e-02
C     6.205668435750000e+00   2.274270060600939e+00   6.773761112000000e+00 -9.30830020e-01   4.28069100e-02   1.93243910e-01
C     7.418667512624999e+00   3.006996892795295e+00   6.718538584000000e+00 -4.10906510e-01   4.64708270e-01   3.72509950e-01
C     7.311809688675000e+00   2.702777993374859e+00   1.021169368800000e+01 -6.26148750e-01  -4.84080450e-01  -1.14266940e-01
C     8.510834101275000e+00   3.406111907737539e+00   1.010875651200000e+01  1.94412360e+00   2.44889750e-01  -1.32259000e-03
C     9.881102273400000e+00   4.342669488460103e+00   6.758935480000000e+00 -6.57428750e-01   1.40371238e+00   2.94296490e-01
C     3.687971135774999e+00   5.091644179015595e+00   6.813579192000000e+00  1.09446354e+00  -1.24747810e-01  -5.61069200e-02
C     3.567304443450000e+00   4.828598061249363e+00   1.015778043200000e+01  1.01144946e+00  -8.69506310e-01  -7.90812900e-02
C     4.787212890675000e+00   5.512041439422719e+00   1.020805337600000e+01  1.87861592e+00   1.14715821e+00  -1.95584650e-01
C     4.928376822150000e+00   4.400830652811794e+00   6.815685015999999e+00 -1.98988600e-01  -6.93294470e-01  -1.97032880e-01
C     6.137678325074999e+00   5.122246156688661e+00   6.851522512000000e+00  1.64105390e+00  -3.04764320e-01  -4.16322960e-01
C     6.052813120200000e+00   4.805647250441639e+00   1.020997859200000e+01 -3.86541100e-02   4.92243530e-01  -3.00182690e-01
C     7.298955736650000e+00   5.528380942713829e+00   1.015265472800000e+01 -1.02507625e+00   2.51259030e-01   1.13111170e-01
C     7.413710200424999e+00   4.444959511809016e+00   6.793189119999999e+00 -6.01552890e-01  -1.16474891e+00   1.40415050e-01
C     8.663757081075000e+00   5.100409046322791e+00   6.855574767999999e+00  2.02773050e-01  -3.02401000e-03  -3.88243490e-01
C     8.525344903050000e+00   4.844650974001239e+00   1.017830500800000e+01  5.80082870e-01  -5.04400530e-01  -3.85650980e-01
C     9.780500915249998e+00   5.573175908571071e+00   1.019231069600000e+01 -1.60485572e+00  -1.39645295e+00   7.78919700e-02
