72
Lattice="7.395 0 0 3.6975 6.40425786098592 0 0 0 13.6 " PBC="1 1 1" Properties=species:S:1:pos:R:3:force:R:3 Energy="-573.71458582"
C     1.101413592450000e+01   6.325580015168014e+00   1.342888112800000e+01  2.25217372e+00  -5.17954350e-01  -9.09027180e-01
C     1.168867676550000e+00   6.534487162731528e-01   1.342286503200000e+01  1.23966105e+00  -3.64752478e+00  -5.29200780e-01
C     1.311670487925000e+00   8.496254160199807e-01   3.766707000000000e+00 -1.08664522e+00   2.17375960e-01  -6.00108670e-01
C     2.549180551125000e+00   1.539245252601256e+00   3.818654784000000e+00  8.74659390e-01  -1.00052900e+00  -9.82818260e-01
C     6.135393898649999e+00   6.270560651637282e+00   1.329682621600000e+01 -3.51585490e-01   8.69903090e-01   6.04037930e-01
C     3.666482116200000e+00   5.588199144744216e-01   1.349002169600000e+01  1.12825328e+00   1.00402617e+00  -2.14199627e+00
C     3.813043325400000e+00   8.658684711877200e-01   3.652390568000000e+00  1.06204490e-01   5.76332060e-01   2.02270960e-01
C     5.064106094175000e+00   1.651163757429787e+00   3.616803448000000e+00 -1.20302788e+00  -2.02399196e+00  -1.34520470e+00
C     8.653799676599998e+00   6.298015320827631e+00   1.335403964800000e+01 -1.68561756e+00   5.34924890e-01  -3.05560350e-01
C     6.170987993325000e+00   6.881898298437162e-01   1.322652020000000e+01 -1.75207511e+00  -2.12272224e+00   8.10454430e-01
C     6.258420113625000e+00   9.128975623994228e-01   3.544917792000000e+00 -2.69642170e-01  -1.03100225e+00   1.37783250e-01
C     7.474147686675000e+00   1.586544539452072e+00   3.728693912000000e+00  4.33515020e-01   1.73454519e+00  -2.05473800e-02
C     1.207734428475000e+00   2.027668539997300e+00   1.342652846400000e+01 -4.18060390e-01   1.13738050e+00  -8.62434500e-02
C     2.462209878825000e+00   2.732321219138511e+00   9.183495200000000e-02 -8.60741240e-01  -1.77209579e+00  -2.03683732e+00
C     2.569346198475000e+00   2.926933806988191e+00   3.752929520000000e+00 -5.64961440e-01   1.98273335e+00   2.29575530e-01
C     3.780697040775000e+00   3.646445517131017e+00   3.623598960000000e+00 -1.78836520e-01   2.26713655e+00  -1.67934058e+00
C     3.655586877825000e+00   2.027787915363811e+00   1.341709713600000e+01  1.99900483e+00  -6.24742580e-01   1.53698898e+00
C     4.903686507075000e+00   2.781496313116521e+00   1.319774994400000e+01 -4.59196770e-01  -1.36872301e+00  -4.92270160e-01
C     5.086233043425000e+00   3.043359756583746e+00   3.424286472000000e+00 -3.42260736e+00  -7.02848470e-01   2.53419331e+00
C     6.221763283500000e+00   3.782799531866956e+00   3.602168488000000e+00  2.63522590e+00   1.18336405e+00   3.19760310e-01
C     6.176496750675000e+00   2.090268367386599e+00   1.299344516800000e+01 -3.03227495e+00  -2.11451411e+00   1.60665468e+00
C     7.380245311125000e+00   2.700301338775240e+00   1.304890420000000e+01  2.92349712e+00   3.11407372e+00   2.13549066e+00
C     7.448098688249999e+00   3.076133610224875e+00   3.845838055999999e+00  6.50381000e-01  -1.91689327e+00  -1.64984655e+00
C     8.740014579899999e+00   3.710311146086345e+00   3.782461376000000e+00 -1.54963490e-01  -1.36268492e+00   3.18394000e-01
C     2.483603724750000e+00   4.099123759494364e+00   6.891799999999999e-02 -1.66771661e+00   2.86836030e+00  -1.95356455e+00
C     3.675546574425000e+00   4.828731718110901e+00   1.348816026400000e+01  2.53674610e-01   2.51338065e+00  -3.96339740e-01
C     3.696531070125000e+00   5.107891140780628e+00   3.488201576000000e+00  2.15602532e+00  -6.92724500e-02   6.88165140e-01
C     4.970291756100000e+00   5.833871087319475e+00   3.603790152000000e+00 -2.07332590e+00   1.99203778e+00  -2.07474820e-01
C     4.890949617900000e+00   4.188213774840295e+00   1.314162968000000e+01  5.80441200e-01  -2.25322360e-01   8.47738150e-01
C     6.168736548600000e+00   4.882388703867075e+00   1.296230116800000e+01 -8.37826620e-01   2.44667590e-01   2.48552520e+00
C     6.200300405249999e+00   5.261414714668914e+00   3.627979928000000e+00  1.53419484e+00  -4.97122744e+00  -4.75742970e-01
C     7.464656315099999e+00   5.838530569168097e+00   3.581863416000000e+00  1.87919164e+00   1.29534873e+00   1.29441858e+00
C     7.403956454250000e+00   4.153989548921613e+00   1.313983026400000e+01 -2.18061000e-01   2.88850460e-01  -1.01013257e+00
C     8.631209023875000e+00   4.858134434457105e+00   1.331579019200000e+01  9.49833160e-01  -2.54460820e-01   1.82533994e+00
C     8.753013954600000e+00   5.084781184165083e+00   3.673831512000000e+00 -2.69682496e+00   2.68702442e+00  -1.52830460e+00
C     9.895875634649999e+00   5.873377929376558e+00   3.445022392000000e+00  1.48500523e+00  -8.57633640e-01   1.41536671e+00
C     7.442684808749999e+00   8.633836191380401e-02   6.503138927999999e+00 -1.49043430e+00   2.30386856e+00   1.28166992e+00
C     1.272637274550000e+00   7.474432403734297e-01   6.801498040000000e+00 -1.76812000e-03   2.68072924e+00   8.57377790e-01
C     1.139074737525000e+00   5.510893988541943e-01   1.009399860800000e+01 -1.08931710e+00   1.20467540e+00   1.27948274e+00
C     2.346344094450000e+00   1.310184738105844e+00   1.019345228000000e+01  1.73796234e+00  -2.42543281e+00  -6.48203610e-01
C     2.460524558325000e+00   6.737477800713661e-02   7.115138520000000e+00  2.04116332e+00  -6.35728000e-03  -4.55118650e-01
C     3.719616966000000e+00   8.755932086629729e-01   7.324148488000000e+00 -1.63970257e+00  -1.67017030e+00  -2.45630168e+00
C     3.645620821200000e+00   5.871529916728476e-01   9.971930175999999e+00 -3.05197608e+00  -1.62266434e+00  -5.99373870e-01
C     4.808545358099999e+00   1.291918641922709e+00   9.933485016000001e+00  2.48254921e+00   1.06419760e-01   2.46892957e+00
C     4.827009711750001e+00   1.321427668949388e-01   6.814763071999999e+00  2.20863432e+00  -7.12021360e-01   1.18280873e+00
C     6.087822751049999e+00   7.848292483975944e-01   6.620001416000000e+00  2.09927377e+00   2.50902760e-01   5.69047110e-01
C     6.061474403025000e+00   5.334696203742906e-01   1.001039682400000e+01 -1.35502767e+00   3.42668270e-01  -3.72953110e-01
C     7.245977660849999e+00   1.213337245214094e+00   1.020404736000000e+01  2.43315112e+00   1.80059707e+00  -9.84939550e-01
C     8.663919845024999e+00   2.261380018678381e+00   6.953347208000000e+00  2.92935897e+00  -3.13192289e+00  -4.22142830e-01
C     2.510069505375000e+00   3.043116779040539e+00   7.071402008000000e+00 -1.20710820e-01  -2.43989937e+00   1.31367296e+00
C     2.369533557300000e+00   2.694159463359765e+00   1.036166320000000e+01 -1.06288427e+00   8.93390400e-02  -7.82674350e-01
C     3.609393344775000e+00   3.344008666502704e+00   1.037062927200000e+01 -7.49391190e-01   3.56356732e+00  -4.21808180e-01
C     3.745962688800000e+00   2.308671300206872e+00   7.401278167999999e+00 -1.50095285e+00  -4.50500940e-01  -2.90141784e+00
C     4.953800351475000e+00   2.953317684264348e+00   7.116587871999999e+00  1.39610357e+00  -5.66040720e-01  -9.03193340e-01
C     4.807950874050000e+00   2.673839265510614e+00   1.029246354400000e+01  2.09416431e+00   8.60696900e-01  -1.28064312e+00
C     6.067470342975000e+00   3.475541491879056e+00   1.021212644000000e+01 -7.55163400e-02  -3.53724301e+00  -1.04908872e+00
C     6.179484848325000e+00   2.172919669965244e+00   6.824627423999999e+00 -5.61976300e-01   9.90121370e-01   1.00616803e+00
C     7.462874674724999e+00   2.847151740015984e+00   6.886034416000000e+00 -2.63411778e+00   2.98395255e+00   7.98111400e-02
C     7.287368215350000e+00   2.659638207961535e+00   1.017332577600000e+01 -8.99878480e-01   1.07086920e+00   4.90968290e-01
C     8.501617564875000e+00   3.396605683540470e+00   1.022624174400000e+01  5.89403760e-01  -4.95608230e-01  -1.45436585e+00
C     9.907469552624999e+00   4.422835362605860e+00   6.892549495999999e+00  2.77610830e-01   1.00807898e+00  -1.36489603e+00
C     3.777678475725000e+00   5.146093307426471e+00   6.657072432000000e+00 -5.80513910e-01  -4.39559775e+00   1.79296146e+00
C     3.607899739650000e+00   4.847972350212592e+00   1.026978853600000e+01  2.85186800e-02  -1.38453546e+00  -5.97344530e-01
C     4.844976566774999e+00   5.565921485480157e+00   1.016452412800000e+01  5.63395630e-01  -1.41979874e+00  -9.71130750e-01
C     4.986540124049999e+00   4.349003811824272e+00   6.891949464000000e+00  6.02300100e-01   1.71074158e+00   1.24410650e-01
C     6.287564769975000e+00   5.013970137560585e+00   7.007161048000000e+00 -3.76902826e+00   1.82780673e+00  -6.91552440e-01
C     6.100916338050000e+00   4.841463446779160e+00   9.970234800000000e+00 -4.32448990e-01   7.75543810e-01   1.01094171e+00
C     7.374290820150000e+00   5.501498686091008e+00   9.730885408000001e+00 -4.08538360e+00   2.76607210e+00   2.00956083e+00
C     7.477829952975000e+00   4.313739726556861e+00   6.989997712000000e+00 -4.92524470e-01  -1.37574881e+00  -5.32304820e-01
C     8.626217398874999e+00   5.070551883838842e+00   6.828906391999999e+00  8.31204830e-01   1.09425724e+00   3.50678640e-01
C     8.503348290675000e+00   4.770812122365689e+00   9.825546167999999e+00  3.72138530e+00   3.30552100e-02   2.26441933e+00
C     9.773969688224998e+00   5.537703428752896e+00   1.000417577600000e+01 -5.78000890e-01  -1.73509428e+00   1.54067760e-01
