64
Lattice="9.86 0 0 4.93 8.53901048131456 0 0 0 30 " PBC="1 1 1" Properties=species:S:1:pos:R:3:force:R:3 Energy="-514.39380601"
C     4.901381744400000e+00   8.438302073519719e+00  -1.877327999999991e-01 -5.27201200e-02   2.98805100e-02   6.35447010e-01
C     1.215673466300000e+00   6.177720473668744e-01  -1.202103000000001e-01 -4.18932610e-01  -1.25166240e+00  -5.32062010e-01
C     1.283617740300000e+00   8.219971700941000e-01   3.389709600000000e+00 -1.11479522e+00   7.70102210e-01   4.95438150e-01
C     2.468219536500000e+00   1.552177861491057e+00   3.579840900000000e+00  7.37424390e-01  -1.12110756e+00  -7.19957840e-01
C     7.355216724100000e+00   8.416583014973734e+00  -1.844058000000004e-01  6.75739420e-01  -1.32754479e+00   5.57143000e-02
C     3.653825820200000e+00   5.573246483492689e-01  -1.412511000000016e-01  6.88580170e-01   1.65828383e+00   4.64684500e-01
C     3.685473708700000e+00   8.447638798358760e-01   3.391023900000000e+00  1.60311502e+00   4.57498400e-01   4.22505000e-02
C     4.968312065299999e+00   1.526584056159562e+00   3.400368900000000e+00 -1.17891869e+00   1.80824400e-02   2.00017800e-02
C     9.845232677999999e+00   8.450983357983567e+00  -1.076556000000011e-01 -1.10763181e+00  -1.99475658e+00   4.97175900e-02
C     6.112204435800000e+00   6.317605689451057e-01  -9.007229999999922e-02  1.00996556e+00  -1.84597774e+00  -1.08696300e-02
C     6.178710185100000e+00   7.599942195373528e-01   3.281296800000000e+00  3.98961130e-01   3.87015335e+00   3.23554120e-01
C     7.390981951400000e+00   1.549666453118784e+00   3.249644100000000e+00  2.02933678e+00  -9.63428910e-01   2.98905690e-01
C     1.227105608790000e+01   8.379187955598461e+00  -2.852099999999780e-02  7.21984930e-01   2.34294288e+00  -5.48490060e-01
C     8.574989238899999e+00   5.721505052951688e-01  -1.584299999999992e-01  4.87915990e-01   6.60363670e-01   3.13423570e-01
C     8.677344666400000e+00   8.722150053368751e-01   3.280302000000000e+00 -1.06491804e+00  -6.71250480e-01   5.46175240e-01
C     9.939134733100000e+00   1.583571021180148e+00   3.434889600000000e+00 -2.05415754e+00  -1.76479412e+00  -6.48058870e-01
C     1.246930159300000e+00   2.012370582509487e+00   2.030640000000000e-02 -1.59269044e+00  -6.04345700e-02   6.75544900e-01
C     2.454820634600000e+00   2.692467842688624e+00   2.285016000000000e-01  9.88433900e-02   6.32049650e-01  -9.52403200e-01
C     2.462005370100000e+00   2.930390718643388e+00   3.783111000000000e+00  1.15572300e-02   2.45586477e+00  -3.34654280e-01
C     3.715087676400000e+00   3.645291960857747e+00   3.708096900000000e+00  8.78211020e-01   6.30711830e-01   2.59266400e-02
C     3.667318737200000e+00   1.977003111172690e+00   2.927550000000000e-02  1.20360595e+00   1.35418801e+00   1.67966970e-01
C     4.932956816800000e+00   2.754161681065995e+00  -1.079879999999989e-02 -2.77998153e+00  -5.59888560e-01   2.68417280e-01
C     4.950076044599999e+00   2.969713118074102e+00   3.518359800000000e+00  1.03140271e+00  -1.20293377e+00  -7.49607690e-01
C     6.214291227599999e+00   3.690287422681059e+00   3.309745500000000e+00 -1.82426187e+00  -2.49956485e+00   9.08956810e-01
C     6.114943593100000e+00   2.035609328750597e+00  -1.545054000000015e-01  1.37630133e+00   2.75241740e-01   4.39926700e-01
C     7.358400320900000e+00   2.732335372548382e+00  -1.526016000000006e-01  1.10659836e+00  -4.22463760e-01  -2.21210550e-01
C     7.450033589999999e+00   2.971894493691323e+00   3.276451800000000e+00 -1.96506320e+00  -3.22437310e-01  -4.27230470e-01
C     8.638779593499999e+00   3.690870722486948e+00   3.325944900000000e+00  1.97784043e+00  -1.97292890e-01   7.72335560e-01
C     8.615477899200000e+00   2.024390008271030e+00  -1.545897000000025e-01 -1.07588637e+00  -1.22371714e+00   4.37554550e-01
C     9.843788483799999e+00   2.698272491232718e+00   3.112380000000000e-02  1.86443280e-01   8.73105090e-01  -5.32027350e-01
C     9.887228340699998e+00   2.983660823182239e+00   3.544462200000000e+00 -5.78517660e-01   5.84368840e-01  -4.27772090e-01
C     1.107614975360000e+01   3.694022385865011e+00   3.762759300000000e+00  1.01499346e+00   5.24448860e-01   4.86047900e-02
C     2.408366723599999e+00   4.118408474237658e+00   3.114867000000000e-01  4.66509800e-01   1.49680914e+00  -3.49174770e-01
C     3.630590385100000e+00   4.863639940116557e+00   2.060535000000000e-01  1.54724074e+00  -1.11194230e-01  -1.25455210e-01
C     3.805720204800000e+00   5.101259681199282e+00   3.692250300000000e+00 -3.73970048e+00  -1.44261341e+00   4.86798000e-01
C     4.962243876200000e+00   5.803565797565535e+00   3.459253500000000e+00  8.09415980e-01   1.43459178e+00  -5.69532280e-01
C     4.888141194099999e+00   4.189776242977925e+00   8.168820000000000e-02  6.21178260e-01  -1.54427173e+00  -7.48444790e-01
C     6.145021227300000e+00   4.852203814160903e+00  -1.340171999999988e-01 -9.79338400e-01   8.37533720e-01   3.19059420e-01
C     6.166593674800000e+00   5.045343337312678e+00   3.309361200000000e+00  1.49153812e+00   3.25129486e+00  -3.30767680e-01
C     7.428368113399999e+00   5.761305039238549e+00   3.191322600000000e+00 -1.47392870e+00   2.00145524e+00   2.97625330e-01
C     7.385815212799999e+00   4.133951351893563e+00  -1.688649000000026e-01 -7.39226140e-01   9.11839400e-01   6.84017500e-02
C     8.621451481599999e+00   4.853009299019482e+00  -1.217436000000021e-01 -4.35011820e-01  -1.19735228e+00   1.54022750e-01
C     8.655346069700000e+00   5.116501387955558e+00   3.308343000000000e+00  6.26720770e-01  -5.76748670e-01   2.61180520e-01
C     9.880627859499999e+00   5.853696193340996e+00   3.501336300000000e+00 -5.35859320e-01   1.58930510e-01  -9.85164300e-02
C     9.813075273999999e+00   4.131100176294291e+00   7.926840000000000e-02  1.28539284e+00   4.85818380e-01   6.02869000e-03
C     1.104411421920000e+01   4.890285324588664e+00   2.363988000000000e-01 -6.83240700e-02  -2.07704634e+00  -3.41891360e-01
C     1.106801116170000e+01   5.155567019341139e+00   3.781753500000000e+00  2.45473314e+00  -1.72988527e+00  -4.36044290e-01
C     1.239332960280000e+01   5.788992951500158e+00   3.787038000000000e+00 -1.00649784e+00   1.87949167e+00  -1.11425775e+00
C     3.722177558700000e+00   6.283133618753190e+00   8.881050000000000e-02 -1.84872444e+00   3.32765870e-01   1.91441680e-01
C     4.928561820400000e+00   7.017499364576500e+00  -9.399149999999779e-02 -6.42671100e-01  -4.87500570e-01  -3.21089610e-01
C     4.899004547700000e+00   7.279160177325036e+00   3.325716900000000e+00  2.54828257e+00  -2.74568375e+00   2.93448810e-01
C     6.159999158899999e+00   7.955061965485034e+00   3.232992300000000e+00  4.12297420e-01  -6.33111080e-01   2.68402110e-01
C     6.114172294599999e+00   6.284790955297254e+00  -2.127933000000013e-01  2.96177149e+00  -3.26162980e-01   4.88738050e-01
C     7.415067022699999e+00   6.971049794658549e+00  -2.347104000000009e-01 -2.15199394e+00   4.56495180e-01  -1.47649460e-01
C     7.391648684599999e+00   7.209292712726104e+00   3.184263600000000e+00  7.89477150e-01   5.71357080e-01  -4.08855200e-02
C     8.640878639600000e+00   7.985674915786568e+00   3.202143900000000e+00 -4.59942370e-01  -1.67115596e+00   1.07798386e+00
C     8.644902653499999e+00   6.247636781407621e+00  -1.777068000000028e-01 -9.31705530e-01   1.57737847e+00   3.55834340e-01
C     9.841000125099999e+00   6.988418995875918e+00  -3.792539999999889e-02  7.17032020e-01   1.24166152e+00  -3.44274160e-01
C     9.904179011800000e+00   7.281511052300285e+00   3.390511800000000e+00 -2.25064064e+00  -1.34206987e+00  -4.67931310e-01
C     1.112136342450000e+01   7.931640142859233e+00   3.413664000000000e+00  1.24351358e+00  -7.24591550e-01   7.41865100e-02
C     1.106246274250000e+01   6.301119507307424e+00   1.235181000000000e-01  9.34191030e-01  -4.99736900e-01   2.46634800e-01
C     1.233616240740000e+01   6.987899397088210e+00   1.138983000000000e-01 -1.18304003e+00  -1.61271340e-01  -3.02653820e-01
C     1.237737710880000e+01   7.236214504967448e+00   3.529527000000000e+00 -1.72838251e+00  -1.87477650e+00   5.17024480e-01
C     1.355456329760000e+01   7.937196903929093e+00   3.376713000000000e+00  8.68967320e-01   2.82420074e+00  -2.69068670e-01
