64
Lattice="7.10842262195238 0 0 0 7.10842262195238 0 0 0 7.10842262195238 " PBC="1 1 1" Properties=species:S:1:pos:R:3:force:R:3 Energy="-509.70676439"
C     7.099023579274931e+00   7.056253408802236e+00   7.063190305184416e+00  7.47619090e-01   9.30202180e-01   1.32954153e+00
C     1.775633642843850e+00   1.773261277878652e+00   2.074571816379140e-02 -4.37897320e-01   2.08470360e-01  -1.62489230e-01
C     7.080625702018300e+00   1.714690008016637e+00   1.764129798181000e+00  1.33966162e+00   1.67897836e+00  -8.06046170e-01
C     1.783181152729088e+00   7.064173613285440e+00   1.749510331883803e+00 -8.25081630e-01   6.41023180e-01   1.24471772e+00
C     8.633166476829284e-01   8.432878850245902e-01   8.807418083882391e-01  1.01179717e+00   2.85930240e-01  -7.43423440e-01
C     2.604929806372816e+00   2.700283466913568e+00   9.001596021223884e-01  7.79490630e-01  -1.13382887e+00   5.84063120e-01
C     7.959229723387800e-01   2.660041193692997e+00   2.662423652618317e+00  2.10021797e+00  -6.15616130e-01   1.02967288e+00
C     2.602282914126033e+00   8.860023254639440e-01   2.652346965964883e+00  3.12262027e+00   1.71230000e-04  -1.08885633e+00
C     3.565145485674084e+00   5.731357664785740e-02   7.069363899145659e+00  2.19906460e-01  -9.07735870e-01   1.18658092e+00
C     5.340984206510521e+00   1.841289451025861e+00   7.078012006105151e+00 -4.79331500e-02   2.59245390e-01  -1.58527590e+00
C     3.554730935693522e+00   1.801453921747607e+00   1.701622665798518e+00 -1.37668640e-01   1.03844850e-01   2.59793992e+00
C     5.348531574227306e+00   6.362493183947679e-02   1.697959695622432e+00 -5.67355510e-01  -1.65009028e+00   2.38515560e-01
C     4.484627273246383e+00   1.003683114948758e+00   7.638243924085866e-01 -2.17269547e+00  -3.03909864e+00   3.30776791e+00
C     6.208380733356198e+00   2.638087114768032e+00   8.665711678952692e-01  6.74917320e-01   1.24492642e+00   1.99937071e+00
C     4.478246682018444e+00   2.614849183633669e+00   2.750962894898631e+00 -1.53014742e+00   2.67925695e+00  -3.48096175e+00
C     6.270911465701779e+00   8.506842698449264e-01   2.605330721408584e+00 -2.08508769e+00   2.22490030e-01   2.53830002e+00
C     7.101749730433927e+00   3.530823675485259e+00   7.101712411215172e+00 -5.72829200e-01   3.75270940e-01   1.75520674e+00
C     1.894242934491289e+00   5.373267960849966e+00   7.099341254681819e+00 -4.23386767e+00  -1.35242664e+00  -2.21407350e-01
C     7.051646155765310e+00   5.312050580667656e+00   1.818530556491859e+00  2.16239203e+00  -6.07210000e-02  -5.76099420e-01
C     1.669645000137091e+00   3.588290296472126e+00   1.811170424626885e+00  1.46688821e+00  -1.22242555e+00  -6.42200290e-01
C     7.891791407149598e-01   4.420180749920486e+00   9.096356981486580e-01  2.67204179e+00   1.70578346e+00  -1.22104440e-01
C     2.728096734267294e+00   6.221268303566259e+00   9.217303948996832e-01 -5.20115920e-01   2.41135830e-01  -1.92316523e+00
C     8.858536172627336e-01   6.181415429736812e+00   2.649345932103172e+00  1.45528820e-01   4.52550080e-01   1.11027170e+00
C     2.627775494747008e+00   4.441180025519133e+00   2.684996804069258e+00  7.77061900e-01  -4.58412080e-01  -4.77145420e-01
C     3.489307786183864e+00   3.517396647082568e+00   6.697982297921200e-03  1.39686665e+00   9.79925830e-01  -2.04864740e-01
C     5.316861347844194e+00   5.322767025356890e+00   7.075184133418463e+00 -3.69799400e-01   2.10669630e-01   2.66074270e+00
C     3.576957906962869e+00   5.291506315200916e+00   1.760495546032298e+00 -9.95536660e-01   1.63261791e+00   1.31694812e+00
C     5.383029246791749e+00   3.589117361443963e+00   1.896878808683011e+00 -1.53851817e+00  -2.02109181e+00  -2.53769626e+00
C     4.424302497692467e+00   4.411764661875311e+00   9.385620023162239e-01  9.30889560e-01   9.70834800e-02  -1.49600441e+00
C     6.221510487524922e+00   6.180351369954824e+00   8.961250746959549e-01 -9.37187500e-01   9.98804660e-01  -1.34416236e+00
C     4.452918874633800e+00   6.249513691931055e+00   2.587357785656176e+00  4.35704520e-01   5.10996990e-01   8.81457990e-01
C     6.282266459994966e+00   4.451592016467552e+00   2.797159538326844e+00 -2.45333507e+00  -3.47195360e-01  -3.02457224e+00
C     7.090186103936842e+00   7.051364946566463e+00   3.593942843055323e+00  1.68085304e+00   1.35344002e+00  -1.31083735e+00
C     1.782567056098946e+00   1.757813964683129e+00   3.535976144537140e+00 -2.43229564e+00   7.65688270e-01   1.70279140e-01
C     7.099092104468988e+00   1.747526157877882e+00   5.400387801577111e+00  1.80836164e+00   1.18926356e+00  -1.76625243e+00
C     1.824522032665579e+00   2.513964743789200e-03   5.343950977775204e+00 -7.27454490e-01  -6.49341700e-01  -1.77605844e+00
C     9.054676745454210e-01   8.555890103685002e-01   4.477054883881975e+00 -4.23341650e-01   6.51497380e-01  -8.12284350e-01
C     2.627243784735032e+00   2.669188027583508e+00   4.398875812149179e+00  4.73665020e-01  -5.72328820e-01   1.91560856e+00
C     9.346624638353443e-01   2.715131895503355e+00   6.289813898795978e+00 -2.16123008e+00  -2.45139680e+00  -2.18152586e+00
C     2.651675646532650e+00   8.952382989741100e-01   6.201246862583218e+00  1.04644710e+00   4.14952510e-01   3.29217800e-01
C     3.603047808336602e+00   6.295467867063700e-02   3.532891089120060e+00 -9.38592330e-01  -2.38345420e+00  -1.17730480e+00
C     5.396444404128666e+00   1.791061478961394e+00   3.524459646882026e+00 -5.65198000e-01  -2.04604673e+00   1.78004429e+00
C     3.554509650497361e+00   1.749880467449626e+00   5.284491652675274e+00  9.63745200e-02   2.14328163e+00   2.69897550e-01
C     5.309438235354807e+00   6.730027067092159e-02   5.357485556612137e+00  9.89636740e-01  -2.48451439e+00  -1.31892735e+00
C     4.514105546430391e+00   9.037538338517389e-01   4.404153318354946e+00 -1.92413718e+00   1.89218840e-01   4.24367220e-01
C     6.228591613802061e+00   2.606643575982272e+00   4.494093133144079e+00  3.83319100e-02   2.60692214e+00  -4.05127000e-02
C     4.418775628021191e+00   2.711786387481478e+00   6.176123066927770e+00 -9.02213200e-02  -3.57689580e-01   5.55780670e-01
C     6.212722913313626e+00   9.085445552764879e-01   6.208423028470787e+00  9.21794800e-02  -8.75118040e-01   1.52767631e+00
C     7.088810979581003e+00   3.518938463948845e+00   3.663098625282743e+00  1.31507924e+00   4.71391070e-01  -1.74519092e+00
C     1.805991654411310e+00   5.346667532563664e+00   3.577938656031750e+00 -1.36648799e+00  -6.15334270e-01  -1.07707570e+00
C     7.085034843316807e+00   5.275387113899352e+00   5.336545849595046e+00  8.53173350e-01   2.11250227e+00   1.37522925e+00
C     1.742484438050421e+00   3.591657343014541e+00   5.353072434596962e+00  4.46780310e-01  -2.39862108e+00  -5.37187170e-01
C     8.762727430870452e-01   4.448788028080866e+00   4.502678828152968e+00  3.86691850e-01  -6.42582640e-01  -1.38726540e+00
C     2.728658086401595e+00   6.210226719626387e+00   4.377116290751323e+00 -4.73805820e-01   6.01451680e-01   2.44462768e+00
C     9.475593460790367e-01   6.235342696016954e+00   6.186080403165414e+00 -1.10389381e+00  -1.46566201e+00   1.19061985e+00
C     2.626524270197435e+00   4.385667012320922e+00   6.190298683316573e+00  2.95513717e+00   2.56376290e+00   1.32784916e+00
C     3.511517412902018e+00   3.522097731298078e+00   3.569984970878006e+00  2.03479519e+00   8.63818380e-01  -5.14602550e-01
C     5.346247069365691e+00   5.385338488964083e+00   3.486316917366499e+00 -4.77301760e-01  -2.60507720e-01   3.17497754e+00
C     3.581482489044725e+00   5.235229501992186e+00   5.282107061223169e+00 -1.14881651e+00   4.64620280e+00   1.38661151e+00
C     5.335516123494313e+00   3.691326455843668e+00   5.341878872581475e+00 -8.60071200e-01  -6.17915398e+00  -7.12371570e-01
C     4.499235437151613e+00   4.502387311741321e+00   4.436714087923892e+00 -1.56048911e+00  -1.55054309e+00  -1.74997218e+00
C     6.211866561640594e+00   6.203992348651742e+00   4.481294489300995e+00 -5.17851140e-01   7.86856770e-01  -7.42560360e-01
C     4.423477778500094e+00   6.272629926870164e+00   6.222055703539875e+00  4.13927160e-01  -2.09162871e+00  -8.91058120e-01
C     6.187664230809375e+00   4.387668104372677e+00   6.273997729550705e+00  1.58258175e+00   2.98625895e+00  -1.48121635e+00
