64
Lattice="7.10842262195238 0 0 0 7.10842262195238 0 0 0 7.10842262195238 " PBC="1 1 1" Properties=species:S:1:pos:R:3:force:R:3 Energy="-513.67596323"
C     5.477750470972000e-04   7.107928158122553e+00   2.183487067762780e-02 -6.01310080e-01   2.53930070e-01  -6.71272980e-01
C     1.776067540960575e+00   1.802025865431612e+00   5.290443534935000e-03 -3.01543680e-01  -1.43845072e+00  -2.82796450e-01
C     7.105183453980518e+00   1.784697379273934e+00   1.774283184714503e+00 -2.02826400e-02  -4.34482610e-01   9.09861950e-01
C     1.760750169730547e+00   7.097536852683958e+00   1.780824141956748e+00  7.15153230e-01   7.05399040e-01   8.54077350e-01
C     8.870361033655706e-01   9.073334222304923e-01   9.103954463582835e-01  7.21376500e-02  -8.06461430e-01  -4.14917370e-01
C     2.656875244426502e+00   2.652152266269321e+00   8.597803495979308e-01  4.11596430e-01   6.43541060e-01   1.37835118e+00
C     8.592696094326837e-01   2.667318512434449e+00   2.686103514386966e+00  1.29134554e+00   4.95283580e-01  -1.28015505e+00
C     2.669511105391587e+00   8.897606906715904e-01   2.687934359716972e+00 -2.51306750e-01   1.48110360e-01  -1.00354054e+00
C     3.523724707067344e+00   7.093597507036407e+00   3.014198660403840e-02  1.28507958e+00   8.58623410e-01  -1.31635510e+00
C     5.362200360083304e+00   1.797358901644678e+00   7.104389087752733e+00 -1.40145933e+00  -6.39497590e-01  -3.09668710e-01
C     3.579252079279248e+00   1.779049666418117e+00   1.760781802211206e+00 -1.16865544e+00   1.81691920e-01   9.52876330e-01
C     5.293895953633082e+00   4.662066083749620e-02   1.746037796349707e+00  1.26590529e+00  -1.48183655e+00   1.40198267e+00
C     4.432276939440261e+00   9.257886644576673e-01   8.676812191716085e-01  3.09999120e-01  -1.19941658e+00   7.18834300e-02
C     6.249969555073675e+00   2.623169734478831e+00   8.750893328892676e-01 -8.85148770e-01   2.25310803e+00   3.79102780e-01
C     4.475733641369596e+00   2.656368769314827e+00   2.664749315246902e+00 -2.59885620e-01   4.80310050e-01   6.05196040e-01
C     6.184101347223779e+00   9.261118844341988e-01   2.663710419280989e+00  1.25529917e+00  -1.51417040e+00   3.59647640e-01
C     7.099812898522656e+00   3.538523021277660e+00   7.097243914587787e+00  4.78209200e-01   7.90727250e-01   6.70661280e-01
C     1.761175182318997e+00   5.332800208463889e+00   7.094216863899287e+00  1.01818989e+00  -2.19534000e-02  -5.50413800e-02
C     7.091054113422971e+00   5.322781668707488e+00   1.765474285235346e+00  6.19361280e-01   5.87718460e-01   1.06727307e+00
C     1.766620589467048e+00   3.558918791795869e+00   1.762554216307276e+00  3.09753170e-01   9.60521000e-02   4.69274450e-01
C     8.765642594986913e-01   4.467866394634910e+00   8.939752033587622e-01  2.25347150e-01  -1.13498615e+00  -7.92187570e-01
C     2.680301833097200e+00   6.241085448483200e+00   8.945590891927691e-01 -1.50114292e+00  -1.29346747e+00   1.21610600e-02
C     8.844612905241541e-01   6.207576984010555e+00   2.696568605252355e+00 -8.18152400e-01   5.44228060e-01  -1.15184405e+00
C     2.669215892600179e+00   4.463220471778930e+00   2.646654896551918e+00 -3.54841070e-01  -1.06748159e+00   6.24305400e-01
C     3.559574899203695e+00   3.512797853068558e+00   7.095179841911619e+00 -4.81930700e-02   1.18729824e+00   2.32987040e-01
C     5.321815918410334e+00   5.356889231038545e+00   7.103115613840360e+00  7.14652300e-02  -1.43361244e+00  -4.89751690e-01
C     3.549692201403561e+00   5.325641102790608e+00   1.746383621110170e+00 -7.18877300e-02   4.58891130e-01   1.34191758e+00
C     5.356161257478031e+00   3.542222031156429e+00   1.776305602034119e+00 -3.14240700e-01   4.34515540e-01  -5.57154100e-02
C     4.406768151615713e+00   4.448707631821034e+00   8.855360840242982e-01  1.76517453e+00  -8.97085200e-01  -6.02496830e-01
C     6.217708974191972e+00   6.193752310446500e+00   8.956469621905339e-01 -5.74025290e-01   1.92758505e+00  -3.66403360e-01
C     4.458396554020546e+00   6.205914537212416e+00   2.663191859850860e+00 -9.36618090e-01   8.75880240e-01  -7.00285620e-01
C     6.247163647412883e+00   4.460339854596402e+00   2.668169106285158e+00 -1.04394867e+00  -1.13253412e+00   2.06545600e-01
C     7.088424210306249e+00   7.095695700141152e+00   3.574059589808016e+00  4.65523720e-01   9.62416570e-01  -7.59775450e-01
C     1.757080446552972e+00   1.824043493654801e+00   3.554162332968148e+00  1.24248292e+00  -1.96607589e+00   2.66287460e-01
C     2.267529948399040e-02   1.779755106278926e+00   5.348019554545988e+00 -9.27826950e-01  -2.18300110e-01  -5.12667300e-02
C     1.764939731854323e+00   7.099820291282181e+00   5.341961259199640e+00  1.05444642e+00   3.24352080e-01  -3.19832520e-01
C     9.111222825711786e-01   8.965576932966083e-01   4.461618873078419e+00 -9.15862840e-01   2.18972600e-02  -4.05586720e-01
C     2.657824147762045e+00   2.681411315699730e+00   4.449561069040791e+00  7.19402000e-01  -7.24979540e-01  -3.21715940e-01
C     8.639940092743882e-01   2.689539939134152e+00   6.226251663244009e+00  1.41881264e+00  -1.24841829e+00  -1.76527710e-01
C     2.675595701901629e+00   8.426585763700416e-01   6.252828704819891e+00 -9.47228690e-01   1.85458133e+00  -1.07837434e+00
C     3.543894998420047e+00   7.073147783590511e+00   3.547466341028561e+00  4.90508260e-01   1.38292510e+00   2.19930120e-01
C     5.366688831378251e+00   1.784535378322424e+00   3.612987089180791e+00 -1.02556418e+00  -1.86930670e-01  -2.24334051e+00
C     3.577613658949564e+00   1.762785879800462e+00   5.346461459391910e+00 -1.09478574e+00  -7.97365700e-02  -2.04431560e-01
C     5.299642544647543e+00   8.971824525606799e-03   5.354876267921013e+00  1.38280274e+00  -2.90627840e-01  -5.20158290e-01
C     4.465811136402790e+00   8.910982825559958e-01   4.457052138050426e+00 -9.43686590e-01  -3.87755270e-01  -2.09530030e-01
C     6.249103038356298e+00   2.665230981963633e+00   4.449699612197655e+00 -4.60496590e-01   3.83867060e-01   4.14185170e-01
C     4.446997203170210e+00   2.672011635216625e+00   6.214112254514705e+00  7.67114300e-01  -3.98775050e-01  -1.29045900e-02
C     6.196549759084376e+00   9.006729013197785e-01   6.231283502364029e+00  1.12539062e+00  -6.57794500e-01  -5.87506600e-02
C     3.420828867958320e-02   3.555501275452851e+00   3.570167799507793e+00 -1.73662721e+00   5.56779200e-02  -7.29037180e-01
C     1.731691862154927e+00   5.324797972783650e+00   3.580509701409178e+00  2.08576145e+00  -2.04392080e-01  -1.36387905e+00
C     1.593054376522960e-02   5.309824364871525e+00   5.287644593528375e+00 -9.14954150e-01   6.07748660e-01   1.96608746e+00
C     1.758566888807040e+00   3.534742264538760e+00   5.322099117967515e+00  9.72741620e-01   6.81412590e-01   4.50951820e-01
C     8.808605190459932e-01   4.426454714809124e+00   4.438324643236905e+00  9.18334120e-01   2.76300150e-01   3.26080250e-01
C     2.661943691923014e+00   6.199596997693117e+00   4.426786820313930e+00 -6.28064140e-01   2.61996300e-01   7.87059410e-01
C     8.634844775409866e-01   6.248074662855863e+00   6.203545299953170e+00  8.09496060e-01  -1.54600121e+00   3.03476610e-01
C     2.708467962549783e+00   4.373564496305014e+00   6.196903047688589e+00 -1.90221471e+00   2.46953592e+00   4.04776400e-02
C     3.606097392724809e+00   3.557451115777517e+00   3.559032810894694e+00 -2.04110457e+00   3.19216490e-01  -7.42131160e-01
C     5.323672069724869e+00   5.340346509917281e+00   3.570221610267026e+00  1.04095975e+00  -2.54803200e-02  -1.32465025e+00
C     3.576222896063961e+00   5.325587576368280e+00   5.281607125860304e+00 -1.36051497e+00  -1.41144930e-01   1.82017844e+00
C     5.327853101741500e+00   3.560224395778484e+00   5.317434286707366e+00  5.65055960e-01   1.46358290e-01   3.77538390e-01
C     4.440413168886888e+00   4.478534359881876e+00   4.428558168146608e+00  1.17848329e+00  -1.60834117e+00  -6.29108600e-02
C     6.222792562628666e+00   6.203025603175422e+00   4.445877982028691e+00 -7.23595390e-01   6.90702860e-01   3.48890830e-01
C     4.414346440970895e+00   6.231184055531576e+00   6.195481434248816e+00  5.92309030e-01  -4.91666520e-01   1.17291577e+00
C     6.252131510729322e+00   4.413665454083898e+00   6.207547199719778e+00 -1.73267574e+00   1.30303507e+00   5.04701300e-02
