64
Lattice="7.10842262195238 0 0 0 7.10842262195238 0 0 0 7.10842262195238 " PBC="1 1 1" Properties=species:S:1:pos:R:3:force:R:3 Energy="-513.51599119"
C     7.068166129934189e+00   7.073407098847690e+00   7.079163925990723e+00  1.27311679e+00   8.83259290e-01   2.12250732e+00
C     1.758071787171557e+00   1.764491261471226e+00   1.647099713702820e-02  4.77508970e-01   4.83001220e-01  -3.37955910e-01
C     7.098240017849529e+00   1.763176416539205e+00   1.811818499517151e+00  8.34289010e-01   7.54530400e-01  -7.02742560e-01
C     1.798946710005307e+00   2.782684444093060e-02   1.764803605561149e+00 -1.08561138e+00  -1.96187080e+00   9.49718270e-01
C     8.597539062657844e-01   8.571355898779336e-01   9.195816609101095e-01  5.90475760e-01   1.05064420e+00  -1.32577420e+00
C     2.689938081885098e+00   2.693096567307843e+00   8.710054730098514e-01 -1.14439674e+00  -1.79976761e+00   9.92407110e-01
C     9.223882794131643e-01   2.676755725388987e+00   2.660142701968011e+00 -7.96019210e-01  -6.94708810e-01   4.21939350e-01
C     2.652350804513098e+00   8.867425255113646e-01   2.703647599002709e+00  9.16834840e-01   7.82825660e-01  -2.01181765e+00
C     3.566334724778410e+00   2.285812811377680e-02   7.088855833727735e+00 -7.44890150e-01  -5.78747950e-01   2.77839290e-01
C     5.355773564108336e+00   1.801339476143425e+00   2.330652741264640e-02  1.90277430e-01   9.57398600e-02  -1.21378630e+00
C     3.548660200607590e+00   1.809651283628765e+00   1.802326978213796e+00  5.82045970e-01  -5.70583130e-01  -7.65155930e-01
C     5.328264821579650e+00   7.102548646052189e+00   1.769776444773423e+00 -4.76518600e-01   4.65133760e-01   1.69047390e-01
C     4.454817249978698e+00   9.357959018221034e-01   8.561256962763102e-01 -4.01974000e-01  -1.21281291e+00   1.80362486e+00
C     6.238437489973023e+00   2.721534807178319e+00   9.039195311830113e-01 -4.35275120e-01  -2.19373311e+00   5.33764930e-01
C     4.466202241815343e+00   2.681394326569668e+00   2.705733849957452e+00 -1.41383557e+00  -1.27625380e-01  -1.84393757e+00
C     6.240364654429531e+00   8.811280800734099e-01   2.710525068971785e+00 -1.63020383e+00   2.33642790e-01  -1.94361444e+00
C     7.108321111724986e+00   3.574171192043150e+00   1.211559551352800e-03 -6.52976300e-02  -4.63007230e-01   4.19780300e-02
C     1.770146651423472e+00   5.324060829357956e+00   7.057508685152702e+00  4.99558700e-02  -1.51300030e-01   1.64763536e+00
C     7.105559702789795e+00   5.357919028223504e+00   1.755683641508142e+00  3.02635680e-01  -8.99058920e-01   5.84748720e-01
C     1.784161830713743e+00   3.535211278263228e+00   1.766749180832243e+00 -3.14853700e-01   1.64422464e+00  -4.99194210e-01
C     8.585687900465779e-01   4.467308099122336e+00   8.604988689563603e-01  1.37854581e+00  -6.54927500e-01   5.00137730e-01
C     2.646781781895685e+00   6.180574076835509e+00   8.904453028541226e-01  7.67032590e-01   1.81336822e+00  -1.37956751e+00
C     8.873080716150117e-01   6.214757770372827e+00   2.642285775672761e+00  1.78518880e-01   5.39154810e-01   1.22700335e+00
C     2.659897461387621e+00   4.445587816217342e+00   2.649668085816310e+00  2.58128580e-01  -8.59308760e-01   6.57657340e-01
C     3.564653796081458e+00   3.521238962761356e+00   7.093973258256099e+00  4.46459640e-01   2.33700010e-01  -1.57370440e-01
C     5.325676289482577e+00   5.309739490305442e+00   7.086580214394395e+00 -2.63385590e-01   2.02283960e-01   1.42852820e+00
C     3.540455374882681e+00   5.301877717056175e+00   1.732747605082450e+00  1.13706340e-01   1.53764630e-01   1.04725963e+00
C     5.324423216743123e+00   3.567905899430108e+00   1.796550105318974e+00  9.00879930e-01  -9.70646500e-02  -1.98790200e-01
C     4.458206048294331e+00   4.377687168171936e+00   8.615337842056061e-01 -8.58848970e-01   2.29565140e+00   5.70750500e-01
C     6.209180359816722e+00   6.198701478611450e+00   9.032702478609003e-01 -7.05890490e-01   6.14077800e-01  -1.26934868e+00
C     4.375620038874040e+00   6.221936779629444e+00   2.646623406239712e+00  2.16891987e+00   9.81395600e-02  -6.32767000e-02
C     6.234342398785868e+00   4.471470507071703e+00   2.663239130861283e+00 -1.75639830e-01  -3.44779900e-01   8.46420900e-02
C     7.078300323726618e+00   4.035735858278800e-03   3.576454275220242e+00  1.78781602e+00  -3.64858630e-01  -3.66854210e-01
C     1.794664809471698e+00   1.771534073350444e+00   3.553918585156508e+00 -5.10875850e-01  -3.85295400e-02   3.47226270e-01
C     5.732942843030000e-04   1.759830197675066e+00   5.342755341090520e+00 -7.24457000e-02   6.15568130e-01  -4.22323710e-01
C     1.739603110025630e+00   4.577539830375199e-03   5.366916300902091e+00  1.10961392e+00   4.96542210e-01  -1.72430783e+00
C     9.034029621112157e-01   8.966234462058432e-01   4.435374576765379e+00 -1.15507281e+00  -4.01621130e-01   7.04252980e-01
C     2.694705843104785e+00   2.608561712742052e+00   4.447621749181603e+00 -1.41523111e+00   2.47987222e+00  -2.56203840e-01
C     8.854672034091103e-01   2.656983576787230e+00   6.231257556621467e+00 -4.71486630e-01   1.28108780e-01  -6.27473600e-02
C     2.649601479896361e+00   9.081056812639291e-01   6.185361599470078e+00  2.32107790e-01  -6.70759820e-01   2.02980296e+00
C     3.552608360699190e+00   3.505340904487500e-02   3.551554394877323e+00 -4.46187210e-01  -1.26136131e+00   1.26233943e+00
C     5.322651158068184e+00   1.783183356340100e+00   3.505148479487177e+00  8.43128030e-01  -3.61503500e-01   3.32130195e+00
C     3.555535395881428e+00   1.784949230687360e+00   5.326859131006546e+00  1.14165335e+00  -6.84952270e-01   4.97767950e-01
C     5.349151215427091e+00   7.092152933391570e+00   5.325040512163445e+00 -1.35212973e+00   1.16099995e+00   9.17314030e-01
C     4.466902066022281e+00   9.048574875477202e-01   4.475354975696629e+00 -6.91832110e-01  -6.41754750e-01  -1.93268431e+00
C     6.205502035447777e+00   2.644476662608471e+00   4.448740401649312e+00  1.45031707e+00   1.12987853e+00  -7.48252260e-01
C     4.492832098971292e+00   2.663476054587207e+00   6.204325733672619e+00 -1.42198563e+00   4.10210260e-01   1.07355840e-01
C     6.230069312696306e+00   8.861034072336004e-01   6.228614360754445e+00 -3.46412570e-01  -3.08339620e-01  -4.52263500e-02
C     3.216817138764320e-02   3.563993565788513e+00   3.554887249906935e+00 -5.89206640e-01  -2.18857800e-02   1.70514700e-01
C     1.802820373827850e+00   5.320575427578918e+00   3.568597904372165e+00 -1.03112390e+00   1.23926200e+00  -4.81200780e-01
C     7.078274449068282e+00   5.341015128148918e+00   5.347400268767333e+00  1.31042818e+00  -7.13872000e-02  -5.47180150e-01
C     1.756784594003527e+00   3.533972209116336e+00   5.329798463759915e+00  1.20086414e+00  -4.44727420e-01   3.50980660e-01
C     9.143800726579245e-01   4.461451754062623e+00   4.469034237387151e+00 -1.11830533e+00  -7.48385520e-01  -7.99261610e-01
C     2.637874288594789e+00   6.258421611737307e+00   4.476647073676266e+00  1.24586592e+00  -1.75651454e+00  -7.24998950e-01
C     8.796772510166679e-01   6.230656112983588e+00   6.219339575256774e+00 -6.40846610e-01  -6.32758980e-01  -1.50555370e-01
C     2.671479143278161e+00   4.386494717050795e+00   6.216314514926607e+00 -1.10902650e-01   1.18014845e+00  -3.40745080e-01
C     3.536995705593527e+00   3.542814091676449e+00   3.578665421160419e+00  1.03298821e+00   1.26968240e-01  -1.03247783e+00
C     5.327462778255436e+00   5.346489040071676e+00   3.538893512264614e+00 -5.76914140e-01   9.97099200e-02  -9.26027700e-02
C     3.565002037705612e+00   5.280484492675927e+00   5.350955830677631e+00 -5.58502280e-01   1.81758921e+00  -1.04860978e+00
C     5.363992606678485e+00   3.593287162152854e+00   5.306858802038687e+00 -8.84130810e-01  -1.88395748e+00   3.34866160e-01
C     4.455631661958272e+00   4.433351732940405e+00   4.399829264875200e+00 -4.28711740e-01   6.40814900e-01   1.70168038e+00
C     6.197918343691404e+00   6.239212521291282e+00   4.458237254269632e+00  5.44319130e-01  -1.06883201e+00  -6.96272540e-01
C     4.428956950655591e+00   6.213512943403613e+00   6.223448101362681e+00  6.62755620e-01  -3.69392670e-01  -2.71117470e-01
C     6.215366322433325e+00   4.441833573894816e+00   6.237967765406293e+00  3.52442290e-01   4.60596070e-01  -1.35098343e+00
