64
Lattice="7.10842262195238 0 0 0 7.10842262195238 0 0 0 7.10842262195238 " PBC="1 1 1" Properties=species:S:1:pos:R:3:force:R:3 Energy="-510.11748156"
C     7.091092001315535e+00   9.795122033455199e-03   1.519418226602380e-02  1.19858116e+00  -6.12641970e-01  -7.98771110e-01
C     1.737964689695946e+00   1.737246810095552e+00   4.096640823286960e-02  1.57909023e+00   2.41041107e+00  -1.39338142e+00
C     3.453371226712680e-02   1.738930511077326e+00   1.773955273179042e+00 -1.78938239e+00   7.62785700e-01   2.04932900e-01
C     1.792877752025030e+00   7.076566934870732e+00   1.702724329136165e+00 -1.93302290e-01   1.32387578e+00   2.99961429e+00
C     8.847955996399728e-01   9.073371186102548e-01   8.540599175787119e-01 -2.32979300e-02  -2.28938874e+00   1.64176178e+00
C     2.627233051016876e+00   2.636228262252902e+00   9.616091433874666e-01  1.28453814e+00   1.20690750e-01  -2.03823709e+00
C     8.414646457067864e-01   2.698481837200529e+00   2.647503642212746e+00  2.34158881e+00  -1.84789510e+00   4.50021400e-02
C     2.752515232230387e+00   8.534244245964840e-01   2.654617040728580e+00 -3.41749063e+00   6.33450000e-04   4.48672210e-01
C     3.598113141353799e+00   4.922831459141700e-02   3.276798008831880e-02 -3.33121427e+00  -2.02417712e+00  -5.67616480e-01
C     5.312106523953676e+00   1.787152486278430e+00   1.890364152604460e-02  2.16423185e+00   2.28901990e-01  -1.65391444e+00
C     3.569434423546087e+00   1.748075354609503e+00   1.770271901830037e+00 -3.85299440e-01   7.93783860e-01   6.82891870e-01
C     5.274439134658749e+00   4.239178913663199e-03   1.757193754809535e+00  1.71220680e+00   8.20246520e-01   6.52451100e-01
C     4.438039168984486e+00   9.021634664589664e-01   8.479443283460474e-01  1.13529159e+00   6.91376590e-01   1.83794891e+00
C     6.204712858368505e+00   2.664422398890608e+00   9.077756372016826e-01  1.03289334e+00  -6.88627200e-01   6.36928460e-01
C     4.408257366154603e+00   2.670610494033997e+00   2.649011694071579e+00  1.38935572e+00   3.64936900e-01   1.14987100e+00
C     6.265580219821005e+00   8.151971048517790e-01   2.660851767124356e+00 -2.50422957e+00   2.87233818e+00  -7.24605190e-01
C     2.810585002876560e-02   3.550279143859294e+00   7.395311448520581e-02 -1.49952153e+00   2.40815350e-01  -2.45466032e+00
C     1.821080063348749e+00   5.348682841460660e+00   7.048289274267241e+00 -5.65913420e-01   6.01018940e-01   2.52683044e+00
C     5.516135953120000e-05   5.397354424392478e+00   1.822720260784088e+00  5.27998640e-01  -3.64263686e+00  -1.88088547e+00
C     1.770355354711596e+00   3.563089019010118e+00   1.759931066192044e+00 -3.21991100e-02   5.99253110e-01   2.11745548e+00
C     9.695877080203807e-01   4.458731431810175e+00   8.658952279883333e-01 -2.79654250e+00   5.56078330e-01   1.87682140e-01
C     2.695717940317421e+00   6.207139247345616e+00   9.575177485800732e-01 -6.86195320e-01   6.35962850e-01  -4.31512457e+00
C     9.202019418679308e-01   6.188554560742531e+00   2.615762758108791e+00 -2.43220370e-01   2.19870794e+00   2.51013131e+00
C     2.629838927665141e+00   4.463540635133736e+00   2.727577606163355e+00  1.49396808e+00  -1.38901847e+00  -2.49431733e+00
C     3.570367546183415e+00   3.507224991902931e+00   5.036651522133140e-02 -9.90391100e-01   4.45884650e-01  -2.55991786e+00
C     5.285763918155801e+00   5.353230099410673e+00   7.083586217871077e+00  7.58863380e-01  -1.04564474e+00   1.10716428e+00
C     3.517002840469420e+00   5.339831149277331e+00   1.795938638805202e+00  1.38569998e+00  -1.62313550e+00  -1.15399880e-01
C     5.357371608597538e+00   3.536402436641662e+00   1.813037593996481e+00 -3.44144040e-01   4.04938430e-01  -1.15546094e+00
C     4.477792098391896e+00   4.369165733303532e+00   8.253512733117704e-01 -7.93294250e-01   2.58178183e+00   3.55623879e+00
C     6.208185322818374e+00   6.262771824212296e+00   9.500206374112116e-01 -6.14402620e-01  -1.54830255e+00  -2.51763676e+00
C     4.404620981479116e+00   6.248136861553787e+00   2.625449334528839e+00  1.19628307e+00  -1.72657607e+00   5.85278160e-01
C     6.270982763180657e+00   4.409842615483089e+00   2.721077166930044e+00 -1.75571171e+00   1.27088976e+00  -1.90387248e+00
C     7.078375317585260e+00   7.068846761400055e+00   3.543138235747921e+00  1.95545575e+00   1.14331835e+00   2.09045070e-01
C     1.780171659844458e+00   1.768170581019339e+00   3.493253031822190e+00  5.84802350e-01   5.93790670e-01   1.49743736e+00
C     7.100337073606655e+00   1.788502802239325e+00   5.298038457999112e+00  3.29822360e-01  -7.30366840e-01   1.82821591e+00
C     1.782238291552771e+00   2.675759551043020e-02   5.234827591777251e+00 -3.30198470e-01  -3.21787030e-01   3.30971487e+00
C     8.586790416814142e-01   9.284896518005887e-01   4.386174695864441e+00  1.14344192e+00  -1.58209952e+00  -9.42774000e-02
C     2.662201798748346e+00   2.641870714875979e+00   4.522530946509199e+00 -3.21218310e-01   1.58604134e+00  -2.09888243e+00
C     8.932390551122350e-01   2.634398838607419e+00   6.240461826566746e+00 -1.26079444e+00   1.49861431e+00   1.31611370e-01
C     2.655397900953387e+00   9.291404278914497e-01   6.301854571535092e+00  8.50201810e-01  -1.65597687e+00  -2.88846600e+00
C     3.566346169338828e+00   7.044399261072672e+00   3.601831486142094e+00  1.93673200e-01   2.03440159e+00  -2.24578266e+00
C     5.345685859399842e+00   1.807842758745785e+00   3.527925287246180e+00 -5.33490180e-01  -1.99058805e+00   6.91260830e-01
C     3.583876179277784e+00   1.790082435913941e+00   5.376621643557855e+00 -1.54220813e+00  -1.20531936e+00  -1.21785398e+00
C     5.301793979837711e+00   7.088780982037546e+00   5.366492141324355e+00  8.97772840e-01   1.02215148e+00  -9.32015460e-01
C     4.438612107847658e+00   8.595895595348100e-01   4.423220382517024e+00  5.39470450e-01   9.56228910e-01   1.70564086e+00
C     6.218343187658129e+00   2.672535099458362e+00   4.465987425283766e+00  4.39702700e-01  -4.46616990e-01  -1.64997789e+00
C     4.474063375306574e+00   2.641108691971116e+00   6.178184225150665e+00 -3.97520820e-01   1.68544667e+00   1.24891617e+00
C     6.263180132007588e+00   8.859955013782288e-01   6.231332479395881e+00 -2.42290372e+00  -3.00867700e-02  -3.08535830e-01
C     2.570498028886060e-02   3.513267506551062e+00   3.614303142544658e+00 -8.76908340e-01   1.10772751e+00  -2.62833099e+00
C     1.804658896254287e+00   5.342855925270594e+00   3.552003078513097e+00 -1.82111443e+00  -7.28356910e-01  -2.75952000e-03
C     7.091999107126074e+00   5.296455625534318e+00   5.329543129219405e+00  3.32373690e-01   1.48129571e+00  -8.37129530e-01
C     1.711805552285894e+00   3.573170681559386e+00   5.371826870332213e+00  2.80690169e+00  -9.13695550e-01  -6.62563240e-01
C     8.896359378546095e-01   4.420371895404737e+00   4.387713385024767e+00 -8.74716200e-02   7.88426950e-01   3.25173783e+00
C     2.687272139065693e+00   6.179176489864190e+00   4.443364088369128e+00 -1.33727719e+00   2.15196702e+00  -7.90272500e-02
C     9.227322559837459e-01   6.196524239847170e+00   6.171207592686040e+00 -1.31890710e+00   1.23406002e+00   5.60493610e-01
C     2.661094590841055e+00   4.490195158516176e+00   6.231498816485189e+00  8.03554240e-01  -3.01352995e+00  -7.05885680e-01
C     3.527654953933942e+00   3.599754191799852e+00   3.594998443814393e+00  8.09151300e-02  -1.39781549e+00  -6.36536920e-01
C     5.301578097042742e+00   5.333281093254132e+00   3.460793344022901e+00  1.63284594e+00   1.38772177e+00   2.40213733e+00
C     3.540494826628222e+00   5.359103291431997e+00   5.344365967487760e+00  1.18775340e-01  -1.01599754e+00  -2.65133380e-01
C     5.370924242827925e+00   3.580855099664284e+00   5.238700260420627e+00 -2.41734772e+00   6.75298420e-01   3.23759237e+00
C     4.446079932315325e+00   4.548698969447527e+00   4.373108135572811e+00 -3.13856160e-01  -3.37322287e+00   1.98871823e+00
C     6.216427467762038e+00   6.262309208068186e+00   4.455089929070401e+00 -8.21046240e-01  -2.59998470e+00  -3.92687420e-01
C     4.349099296005308e+00   6.221436702098127e+00   6.252763307331787e+00  3.27350888e+00   1.05765986e+00  -7.49682370e-01
C     6.159631099944012e+00   4.472479476578386e+00   6.207699746469203e+00  2.56387650e+00  -8.79402330e-01   5.34051800e-02
