64
Lattice="7.10842262195238 0 0 0 7.10842262195238 0 0 0 7.10842262195238 " PBC="1 1 1" Properties=species:S:1:pos:R:3:force:R:3 Energy="-504.42475419"
C     7.058436831894196e+00   7.299141598894600e-03   2.693665667622800e-03  1.07927147e+00  -6.25916400e-02   1.53363322e+00
C     1.759298132241959e+00   1.754393960392195e+00   6.457532794377080e-02 -5.51383950e-01   3.80214870e-01  -2.86001758e+00
C     7.108292322613376e+00   1.726015573440179e+00   1.847267563365055e+00  1.02859672e+00   2.47541504e+00  -1.69456952e+00
C     1.820671684469230e+00   1.014816895130012e-01   1.726059787828875e+00 -1.47905984e+00  -6.44562057e+00  -9.98876000e-02
C     8.888995763554035e-01   8.833226633888825e-01   9.226097067777773e-01 -1.55715737e+00   9.62941140e-01  -4.21649680e-01
C     2.637823036867699e+00   2.651775946375818e+00   8.260928950437150e-01  1.12280615e+00  -9.66502300e-01   3.08454609e+00
C     9.113995821375848e-01   2.757039458891112e+00   2.703938902161676e+00 -1.56717948e+00  -4.48878167e+00   8.26253880e-01
C     2.658615101946973e+00   8.141082366748473e-01   2.640571153052591e+00  3.88169870e-01   5.26118938e+00   3.33477990e-01
C     3.591987671413692e+00   4.719096958429880e-02   7.091125126564944e+00 -1.26008790e+00  -1.68936258e+00  -6.32587000e-02
C     5.378925412244771e+00   1.708646071683982e+00   1.173338984609584e-01 -1.11015290e-01   4.88489902e+00  -3.02517796e+00
C     3.566451231825152e+00   1.719630646074442e+00   1.764050823605691e+00  2.17704610e-01   3.53951231e+00  -2.52644480e-01
C     5.238009037405058e+00   3.221793034598320e-02   1.815901719638531e+00  1.39796649e+00  -3.07842905e+00  -4.43232630e-01
C     4.482344403321969e+00   9.076555048594045e-01   9.195178272749820e-01 -2.46537117e+00  -1.15724762e+00  -4.18183560e-01
C     6.278634909046861e+00   2.675909112254945e+00   9.472356995971479e-01 -1.07068924e+00  -4.80934620e-01  -3.86577210e-01
C     4.493143661134726e+00   2.727433518436848e+00   2.638645836785964e+00 -1.58564678e+00  -1.52293739e+00   8.87997430e-01
C     6.211207824116398e+00   7.947487320061822e-01   2.675031079892922e+00  1.05925074e+00   2.88238697e+00  -1.20087215e+00
C     7.102832272114727e+00   3.510831379034962e+00   7.002265365508693e+00  9.69909190e-01   3.44898350e-01   5.48759247e+00
C     1.853084598847680e+00   5.256268300420599e+00   7.089409011176024e+00 -3.72066040e+00   2.56399826e+00   4.41109600e-01
C     7.104048025635426e+00   5.292910015415687e+00   1.798429856596607e+00  1.86160384e+00   2.96581437e+00  -1.63385492e+00
C     1.813879302318915e+00   3.500531345742808e+00   1.863010373688890e+00 -1.94316459e+00   2.34338379e+00  -4.53376085e+00
C     9.264905501071662e-01   4.465508744104535e+00   9.267733231589897e-01 -8.32105840e-01  -2.28458558e+00  -1.91712984e+00
C     2.634948177507492e+00   6.233601345727733e+00   7.396546181529674e-01  3.09987094e+00  -1.24380100e-02   4.60105163e+00
C     1.027756072488293e+00   6.223780420120167e+00   2.667345453356178e+00 -4.44006056e+00   9.26381300e-01  -1.01918852e+00
C     2.581981045870634e+00   4.463541132723320e+00   2.635180338590262e+00  5.32744048e+00  -1.20679592e+00   1.62425549e+00
C     3.441680217282244e+00   3.485717748423859e+00   6.991728124153711e+00  5.93334846e+00   3.15496120e-01   3.11432536e+00
C     5.325256394958414e+00   5.384508296286293e+00   7.020448070812618e+00 -8.75297210e-01  -3.70980828e+00   3.62423929e+00
C     3.548778058254629e+00   5.251117821727052e+00   1.753624757980485e+00 -1.43173026e+00   3.61790055e+00  -3.10760170e-01
C     5.365192508416741e+00   3.687665902531273e+00   1.884361658375680e+00  4.46059140e-01  -4.75637328e+00  -4.19206381e+00
C     4.487524737390521e+00   4.413359791911239e+00   9.512216054128606e-01 -2.27509217e+00   1.76319175e+00  -3.38911460e+00
C     6.073136097840758e+00   6.198831420576942e+00   9.178398841155309e-01  4.42273700e+00   1.19840874e+00  -1.03611921e+00
C     4.309276632971996e+00   6.251122541222640e+00   2.688825755913521e+00  2.82410122e+00  -2.04431457e+00  -1.88591089e+00
C     6.273757678118827e+00   4.508831167930578e+00   2.686491989683149e+00 -2.34352963e+00  -1.74188180e-01   1.29179084e+00
C     7.101733096724996e+00   7.061179687846349e+00   3.521687930734035e+00  7.65312960e-01  -1.84411400e-01   1.66243387e+00
C     1.749837177155871e+00   1.769962898698745e+00   3.540641402302646e+00  5.22047040e-01  -6.13123990e-01   2.19446870e+00
C     7.021111642064195e+00   1.747259805282311e+00   5.334957970150191e+00  3.59669459e+00   8.35728170e-01  -4.61547130e-01
C     1.823052934962703e+00   7.090350948257401e+00   5.453813355388733e+00 -2.27326026e+00   8.53690970e-01  -4.11044175e+00
C     8.249495052652880e-01   8.269301250598986e-01   4.499665212383218e+00  1.07423512e+00   1.12909493e+00  -1.36920361e+00
C     2.689042207382299e+00   2.601080808776764e+00   4.464838633104148e+00 -1.62043677e+00   2.48336501e+00  -1.29054185e+00
C     8.961918227843567e-01   2.596768057688984e+00   6.225621003989163e+00 -1.79372063e+00   1.89950103e+00  -1.01544337e+00
C     2.671065006576320e+00   9.185596119058060e-01   6.217857042635146e+00  1.09130682e+00  -3.13820240e-01   2.25151785e+00
C     3.501443143112275e+00   2.102429724626920e-02   3.517910230616863e+00  1.07631679e+00  -4.60015900e-01   3.57302082e+00
C     5.425735867966221e+00   1.798841363182079e+00   3.431591019805000e+00 -2.49583002e+00   5.53384980e-01   5.32743383e+00
C     3.552168278254786e+00   1.781645378022037e+00   5.386137760003475e+00  2.73534740e+00   5.18790660e-01  -2.41223712e+00
C     5.305671553292695e+00   7.106237561970838e+00   5.358099724326505e+00 -3.57637000e-01   4.11632190e-01  -1.67871948e+00
C     4.503369624663180e+00   9.318264875468691e-01   4.491364565121392e+00 -2.74535701e+00  -4.98857790e-01  -2.69125588e+00
C     6.287597919128419e+00   2.703037554173460e+00   4.418350046758931e+00 -4.76966500e-01  -8.23372030e-01  -1.37481149e+00
C     4.623824262822770e+00   2.664556321572769e+00   6.184629716277124e+00 -6.11107007e+00  -9.70746300e-01   2.05955677e+00
C     6.167911203864467e+00   9.467600750396438e-01   6.227420643343868e+00  1.23329193e+00  -3.91529591e+00   1.23624397e+00
C     1.851744092510000e-03   3.655228037589427e+00   3.586123649257550e+00  1.88064743e+00  -2.11087568e+00  -1.59759648e+00
C     1.879863732878648e+00   5.368009149795690e+00   3.567881517540521e+00 -3.84783496e+00  -1.83319860e-01  -9.70554870e-01
C     7.081162601178788e+00   5.301146686873934e+00   5.279785308227025e+00  7.30185020e-01   2.79190263e+00   7.50192130e-01
C     1.680007587548300e+00   3.614833786293241e+00   5.338221375890805e+00  2.46432075e+00  -4.15757074e+00  -1.95763210e+00
C     9.124095468234343e-01   4.506326017630837e+00   4.378726774980111e+00 -8.10330010e-01  -2.00875070e-01   2.79370167e+00
C     2.654020644070762e+00   6.243570624115378e+00   4.453766482947010e+00  1.91469732e+00  -5.32735610e-01   1.37374472e+00
C     9.177289216384327e-01   6.273075624968438e+00   6.293180447748810e+00 -1.89837086e+00  -3.57639049e+00  -1.71518505e+00
C     2.630795152675984e+00   4.367988791770339e+00   6.152006676926026e+00  2.92697930e-01   2.36805955e+00   1.29224849e+00
C     3.516704073466701e+00   3.573060358840323e+00   3.541316204861963e+00  1.47971964e+00  -1.73158533e+00   1.43732400e+00
C     5.281435528538258e+00   5.378851697902202e+00   3.507198903991916e+00 -7.70938310e-01  -7.40124820e-01   1.67755238e+00
C     3.547544675845833e+00   5.283070821161989e+00   5.342527373977097e+00 -3.53891490e-01   1.03155866e+00  -6.23185780e-01
C     5.448077995682013e+00   3.565329949241073e+00   5.269366777529795e+00 -4.04286798e+00  -1.24781504e+00   1.45009571e+00
C     4.429604741208951e+00   4.402965074429787e+00   4.500700411969369e+00  6.06502450e-01   1.36588116e+00  -3.33736076e+00
C     6.110748752281511e+00   6.237091439065701e+00   4.354995945821276e+00  3.35769412e+00  -6.44635650e-01   3.38381622e+00
C     4.379798867279659e+00   6.194564660983515e+00   6.220629398541173e+00  1.82709717e+00   1.28378715e+00  -9.36261870e-01
C     6.224569241778308e+00   4.392970987647198e+00   6.197671965763395e+00  1.25157667e+00   3.00750369e+00  -9.93785250e-01
