64
Lattice="7.10842262195238 0 0 0 7.10842262195238 0 0 0 7.10842262195238 " PBC="1 1 1" Properties=species:S:1:pos:R:3:force:R:3 Energy="-514.07315394"
C     2.154299884485060e-02   7.102452113673009e+00   2.511000531556660e-02 -7.94614070e-01   1.90258920e-01  -1.13688794e+00
C     1.793117874541133e+00   1.796413197099313e+00   1.095343949938420e-02 -2.21702480e-01  -1.25412557e+00  -5.97265010e-01
C     5.328118174820999e-03   1.751809409011789e+00   1.739909056535195e+00 -7.30143000e-03   8.77876610e-01   1.72652077e+00
C     1.753763869811158e+00   1.280589443415620e-02   1.784195524636962e+00  1.34280236e+00  -4.61319590e-01  -1.56775200e-01
C     9.154561456741401e-01   8.990949736665911e-01   8.862496985711199e-01 -8.51299290e-01  -4.19115780e-01  -5.74284600e-02
C     2.645645642708331e+00   2.634805937970866e+00   9.191612687963628e-01  7.20145640e-01   1.82002180e+00  -8.71468900e-01
C     8.769501757627313e-01   2.684081381404254e+00   2.677306485973584e+00 -1.77538430e-01  -9.89379840e-01  -5.41680020e-01
C     2.688284236278329e+00   8.859018123680972e-01   2.659635658182526e+00 -1.15614294e+00  -2.68908410e-01   5.07931490e-01
C     3.545160724151764e+00   7.086362341241092e+00   1.927832648234480e-02  1.77003840e-01   6.48668110e-01  -7.56927790e-01
C     5.308819518249962e+00   1.780433676302231e+00   7.106968663237304e+00  4.64394660e-01  -6.07823450e-01  -2.56322790e-01
C     3.566932898541883e+00   1.769596317344232e+00   1.761554132328869e+00 -6.97422840e-01  -3.30683700e-02   1.01937606e+00
C     5.318653807692053e+00   8.818922355050600e-03   1.768367697578591e+00  3.88334630e-01   3.57776760e-01   3.41722800e-01
C     4.426962042931513e+00   8.939993009114440e-01   8.948963127618618e-01  5.45810660e-01  -5.68109740e-01  -7.19005730e-01
C     6.219365734252015e+00   2.620572174685031e+00   8.908140167354219e-01 -1.20438860e-01   1.80102318e+00  -7.86634030e-01
C     4.442936730001214e+00   2.658650786228525e+00   2.636103935941279e+00  7.96049380e-01   7.13095820e-01   9.14110660e-01
C     6.229486350957241e+00   8.899570253043547e-01   2.648351108357503e+00  7.62334500e-02  -5.53798970e-01   7.15341490e-01
C     9.127001391401400e-03   3.528068237625069e+00   1.785706846370200e-03 -6.76830000e-02   9.03181640e-01  -1.89350820e-01
C     1.785359528840987e+00   5.342215882897889e+00   4.719694065929960e-02 -2.81378710e-01  -5.08304430e-01  -2.22611149e+00
C     7.104513840569714e+00   5.312599066557016e+00   1.766499319777150e+00 -3.81012740e-01   5.14684300e-01   6.94233020e-01
C     1.761011546430284e+00   3.567008247821655e+00   1.786214103408363e+00  5.58595560e-01  -8.05141050e-01   2.67902790e-01
C     9.055229069891784e-01   4.452354394793547e+00   8.896496571102660e-01 -8.31655280e-01  -7.40625460e-01   2.68437600e-01
C     2.663450819686906e+00   6.213860900690861e+00   8.720698882129702e-01  2.17702720e-01   2.56967880e-01   2.04693508e+00
C     8.742482643248691e-01   6.214150426744174e+00   2.681578221462847e+00  6.49438730e-01   2.86391670e-01  -1.49414301e+00
C     2.663365660783919e+00   4.414978237573361e+00   2.668807016131077e+00  7.98738000e-01   1.36858244e+00  -3.40146870e-01
C     3.538151890532669e+00   3.557786633325181e+00   9.980154274253800e-03 -8.23837800e-02   2.95747670e-01  -2.12351400e-02
C     5.314172160482822e+00   5.347844260844179e+00   4.060544253222600e-03  4.97971900e-01  -1.20112160e-01  -1.07688451e+00
C     3.601085741525031e+00   5.329070348030949e+00   1.785802454654439e+00 -2.22622782e+00   2.65845010e-01  -5.13046900e-02
C     5.341361450498964e+00   3.570869614073065e+00   1.752155375940705e+00 -3.01547420e-01  -8.79248950e-01   7.91421220e-01
C     4.441790781190643e+00   4.484069190986487e+00   8.934706475211946e-01  5.17132060e-01  -1.82502754e+00  -5.76499870e-01
C     6.188403364593403e+00   6.227845655932319e+00   8.772470234913423e-01  1.17330873e+00  -1.84343010e-01   6.58666820e-01
C     4.444913937752967e+00   6.244517110587231e+00   2.655498627301913e+00  3.86478750e-01  -7.34060800e-01   5.51458210e-01
C     6.217535102174687e+00   4.422588159409202e+00   2.676381111516913e+00 -3.59686080e-01   8.63123780e-01  -5.24117790e-01
C     2.514512092330940e-02   7.077832020844413e+00   3.560681254100271e+00 -1.56327389e+00   1.17213373e+00  -1.62411360e-01
C     1.768338624130075e+00   1.776501794498431e+00   3.564243924433189e+00  3.33689860e-01   3.92068940e-01  -8.17168460e-01
C     5.708916374574400e-03   1.773591535193577e+00   5.350975805345193e+00  3.17521850e-01  -4.61811630e-01  -5.63623910e-01
C     1.796823921758296e+00   7.084106270069956e+00   5.295265817756182e+00 -5.16188370e-01   9.31750010e-01   1.96920023e+00
C     8.745560590243151e-01   8.842787462312726e-01   4.438288603534222e+00  1.08606982e+00  -2.86972170e-01   3.11369030e-01
C     2.660412608774892e+00   2.688816514964115e+00   4.413879204352082e+00  5.30514900e-02  -1.09656597e+00   1.66683159e+00
C     9.050768534697734e-01   2.664383515818876e+00   6.207423513166190e+00 -1.14292480e-01   7.71900000e-02   6.81989480e-01
C     2.690463962990526e+00   8.717741778319782e-01   6.250873959683618e+00 -9.56344750e-01   5.17584740e-01  -1.50128475e+00
C     3.554782258504838e+00   7.075272775448535e+00   3.552976505906680e+00  1.38654640e-01   1.98889020e+00  -3.11059950e-01
C     5.359726131421961e+00   1.803062771039192e+00   3.564965500413346e+00 -7.84939210e-01  -9.84988760e-01  -8.24033930e-01
C     3.554146552269932e+00   1.768734278933105e+00   5.328508071801707e+00 -8.75571920e-01   6.68160360e-01   1.85592840e-01
C     5.297161705153162e+00   2.945509972626780e-02   5.317031310229038e+00  1.43152159e+00  -1.28667342e+00   7.42737340e-01
C     4.418871520642334e+00   9.114401712307449e-01   4.448490114088862e+00  1.18522671e+00  -6.21974750e-01  -7.89420680e-01
C     6.250136105415662e+00   2.665552780255640e+00   4.463778625123053e+00 -1.63607334e+00  -1.38998380e-01   3.23221630e-01
C     4.406258406629632e+00   2.677847436934966e+00   6.205982493732663e+00  8.37690390e-01  -7.04558140e-01   1.18433081e+00
C     6.237385372341037e+00   8.676684240108923e-01   6.222101908286906e+00 -1.11747170e+00   8.93511350e-01   2.50410640e-01
C     7.083598017852626e+00   3.543459607534571e+00   3.572534904240252e+00  9.12733460e-01   6.63084280e-01  -4.60273410e-01
C     1.786961696215309e+00   5.360582909600350e+00   3.516333298142841e+00 -1.03667490e-01  -1.84540096e+00   1.15078581e+00
C     1.624160833908080e-02   5.329627506195905e+00   5.310808597067490e+00 -8.45919610e-01   1.19664000e-02   1.37517764e+00
C     1.776595057003205e+00   3.571128147403754e+00   5.340051226041646e+00 -5.61266700e-02   1.00986610e-01  -1.07437286e+00
C     8.718858511513383e-01   4.460340778691343e+00   4.418493494727403e+00  9.81363680e-01  -3.59262640e-01   5.86134550e-01
C     2.685392458872287e+00   6.204088952115147e+00   4.428131733873634e+00 -8.06666080e-01   4.08200610e-01  -2.35324030e-01
C     8.914229242170512e-01   6.218472916370944e+00   6.242315347764912e+00  4.71424430e-01  -2.27490910e-01  -8.94629110e-01
C     2.658252074803770e+00   4.458951224237586e+00   6.219433122098453e+00  4.29114200e-02  -2.17286820e-01   4.31625360e-01
C     3.575162674830188e+00   3.541668213950105e+00   3.560776435879153e+00 -9.02152770e-01   4.12021160e-01  -9.29346680e-01
C     5.327783865705181e+00   5.371614257411649e+00   3.558364192663056e+00  3.79760270e-01  -1.86333719e+00  -3.36089360e-01
C     3.557611268539146e+00   5.349339944047653e+00   5.315680354510108e+00 -6.08921330e-01  -1.32923055e+00   3.45710110e-01
C     5.305433634387604e+00   3.528196686821812e+00   5.370352796733504e+00  1.20583801e+00   1.69832444e+00  -1.58092852e+00
C     4.435855106134491e+00   4.448447108132012e+00   4.433723787780337e+00  5.71268890e-01  -1.32474760e-01   5.03007970e-01
C     6.227656358637947e+00   6.200133967937831e+00   4.450472510989128e+00 -5.93331980e-01   1.45258640e+00  -2.56160730e-01
C     4.408932950640408e+00   6.212041713173951e+00   6.201426918928184e+00  1.23992733e+00   8.85453680e-01   5.89219990e-01
C     6.226478208672909e+00   4.453952510366975e+00   6.222638523110490e+00 -4.60705390e-01  -9.16003430e-01   3.09961330e-01
