64
Lattice="7.10842262195238 0 0 0 7.10842262195238 0 0 0 7.10842262195238 " PBC="1 1 1" Properties=species:S:1:pos:R:3:force:R:3 Energy="-505.86558452"
C     4.152278447133700e-02   4.147032431240140e-02   4.299287735337920e-02 -2.01269456e+00  -2.09626370e-01  -4.53251760e-01
C     1.848010038107714e+00   1.727736877977612e+00   3.560281902917480e-02 -1.30985812e+00   2.16504433e+00  -1.54376161e+00
C     2.004390359851880e-02   1.829412058754329e+00   1.813981947941548e+00  5.22004340e-01  -1.39905175e+00  -1.32804218e+00
C     1.788302131468762e+00   7.088636396721456e+00   1.802708202918906e+00 -8.74716240e-01   2.20313240e+00   1.58781848e+00
C     9.386033022516461e-01   9.471277937417764e-01   9.247691744855071e-01 -8.21219160e-01  -1.90767525e+00  -1.23807140e-01
C     2.774309798151759e+00   2.619249368319675e+00   8.496654907150279e-01 -2.66395059e+00   1.16972979e+00   1.01106096e+00
C     9.474514402236650e-01   2.669433623585030e+00   2.612697321938143e+00 -4.64515180e-01   2.62289261e+00   1.17529696e+00
C     2.646029426445585e+00   8.533374175036151e-01   2.769356720354370e+00  1.43747790e+00   1.82623767e+00  -2.13760320e+00
C     3.492930238351016e+00   7.085418200548704e+00   1.283070282910000e-04  2.44283834e+00  -2.98802800e-02   4.48709290e-01
C     5.343736516664759e+00   1.701200354410664e+00   6.399371680500240e-02  1.72239140e+00   2.57138446e+00  -4.22285175e+00
C     3.615979237514228e+00   1.805145467782626e+00   1.776475493334737e+00 -1.15074097e+00  -3.02178520e+00  -3.58661740e-01
C     5.373330443884796e+00   1.160243848459020e-02   1.810614688146454e+00 -1.56217424e+00  -4.23035570e-01   6.76026420e-01
C     4.509966311938766e+00   8.708710527381073e-01   8.531882827970476e-01 -2.79332493e+00  -1.70499943e+00   3.05707184e+00
C     6.249826604694787e+00   2.639303508046766e+00   8.452562072480682e-01 -1.27241349e+00  -2.19216880e-01   2.01980048e+00
C     4.438709564321778e+00   2.651434031247796e+00   2.619953031074829e+00  2.56365540e-01   1.28360571e+00   2.49022036e+00
C     6.246644803645849e+00   9.606419003215630e-01   2.706667541268589e+00 -1.05671237e+00  -1.81207809e+00  -8.26565100e-01
C     7.101339503364527e+00   3.465261414144928e+00   7.025318833076068e+00  4.19575800e-02   1.70220305e+00   2.27270955e+00
C     1.736197962337972e+00   5.479235562625770e+00   7.100232864131046e+00 -3.92744160e-01  -6.38113666e+00  -2.74533080e-01
C     3.668735106830820e-02   5.287275879647075e+00   1.788139917264574e+00 -2.15414629e+00   1.14612675e+00  -1.81801285e+00
C     1.829717934179668e+00   3.514390850577700e+00   1.707624733521941e+00 -2.38465620e-01   1.44443837e+00  -4.08006300e-02
C     7.535144073247648e-01   4.411818614802997e+00   7.210142726007676e-01  6.01610250e+00   2.05621622e+00   5.55997768e+00
C     2.646465954678678e+00   6.212579252092476e+00   9.613763425466616e-01 -7.73735250e-01   1.85549451e+00  -2.54390771e+00
C     8.608813020933164e-01   6.246499365319044e+00   2.683027415582387e+00  1.07152213e+00  -9.79133260e-01  -1.38931631e+00
C     2.723145007070202e+00   4.467819763382524e+00   2.671593446713890e+00 -2.10104451e+00  -1.27531542e+00  -2.85057790e-01
C     3.508713566683785e+00   3.542083772336470e+00   7.041034560309721e+00  3.01308479e+00   2.45353000e-02   2.19399303e+00
C     5.381693929602583e+00   5.390197948835567e+00   7.002711632280777e+00 -3.29008580e-01  -1.37871846e+00   3.72827507e+00
C     3.542042969990632e+00   5.432708946219536e+00   1.791910437874900e+00 -2.00597840e-01  -5.13873771e+00  -1.11605821e+00
C     5.305664587038527e+00   3.545013366550851e+00   1.760722233629650e+00  1.81588232e+00   1.84101526e+00  -1.83621019e+00
C     4.484297300268362e+00   4.559495526059687e+00   8.181675724962245e-01 -1.63814976e+00  -2.82823906e+00   1.01584256e+00
C     6.246894522532489e+00   6.205996426240998e+00   9.919751163882612e-01 -9.57419800e-02   1.54511826e+00  -3.74096434e+00
C     4.289822870619390e+00   6.146871410256886e+00   2.746351874397716e+00  5.68933084e+00   3.35408463e+00   3.48229450e-01
C     6.246046558798150e+00   4.452174054111677e+00   2.609674109797856e+00 -1.70673110e+00  -1.56106533e+00   1.56221601e+00
C     1.322209257855720e-02   1.961028981869880e-02   3.578813773940498e+00 -9.47137870e-01   1.69053326e+00  -1.26501571e+00
C     1.817713230059012e+00   1.917385968183676e+00   3.560548255513051e+00 -5.04331730e-01  -5.05406253e+00   9.80843690e-01
C     7.060571633375434e+00   1.783935427453296e+00   5.321382517883192e+00  1.35050705e+00   1.58783786e+00  -5.26083100e-01
C     1.645254082853763e+00   7.075842017931944e+00   5.344570263553859e+00  3.21000486e+00   3.53444600e+00  -5.40015950e-01
C     8.696696582311010e-01   1.003913925431230e+00   4.428427444254627e+00  1.36866740e-01  -2.84010268e+00   4.48211120e-01
C     2.705140509921361e+00   2.664121072855746e+00   4.550106366042060e+00  5.92102500e-02   2.66795040e-01  -2.98505925e+00
C     9.067515267548192e-01   2.727606892864550e+00   6.180044925855676e+00  2.16212010e-01  -3.71865866e+00  -7.63362060e-01
C     2.623857190030412e+00   8.148681270529253e-01   6.237743210335728e+00  9.73044300e-02   1.54565346e+00   2.12700070e-01
C     3.530596348129872e+00   7.061068085611215e+00   3.678522480683619e+00 -2.35627559e+00   8.18355770e-01  -2.26195924e+00
C     5.271621853521764e+00   1.809375974420693e+00   3.531020649876059e+00  1.97814477e+00  -1.49425511e+00   1.42803232e+00
C     3.581348708531016e+00   1.744096343963732e+00   5.404253219629415e+00 -1.35466681e+00  -1.73052573e+00  -1.36577184e+00
C     5.264853000250321e+00   7.043616410489531e+00   5.251006432744598e+00  2.87931321e+00   2.05249919e+00   2.41399180e+00
C     4.414513488902466e+00   8.060256047347764e-01   4.481023587314947e+00  5.63640000e-03   3.70273382e+00  -1.67803694e+00
C     6.154066129127493e+00   2.690187942940191e+00   4.467159035499995e+00  2.27492984e+00  -3.36966530e-01  -1.94562341e+00
C     4.485515115231620e+00   2.591655822309133e+00   6.221425186453482e+00 -9.54321430e-01   2.08346296e+00   1.37776678e+00
C     6.249339109071507e+00   9.057153319895017e-01   6.180355066334586e+00 -1.77944006e+00  -2.15345543e+00   2.31575361e+00
C     5.037739110794000e-02   3.613424896929957e+00   3.497467828846266e+00 -2.29042746e+00  -2.16864017e+00  -1.28551290e-01
C     1.707793771811845e+00   5.338931933815902e+00   3.515297529882881e+00  4.53147120e+00   2.12238666e+00  -3.94454250e-01
C     2.646444416158140e-02   5.306223095803781e+00   5.316745907060845e+00 -1.43967756e+00   2.09185050e-01  -8.62136200e-01
C     1.775032625711329e+00   3.586523426945698e+00   5.254343694996234e+00 -4.14317450e-01   1.67686420e-01   2.29530830e+00
C     9.058273607299929e-01   4.497246073997180e+00   4.287377004564300e+00 -1.09981602e+00  -2.25999676e+00   5.63917908e+00
C     2.582076511986421e+00   6.251812911227494e+00   4.530391653495074e+00  6.88887950e-01  -3.18902720e+00  -1.92110386e+00
C     8.053673648001644e-01   6.257433469908902e+00   6.210610147942510e+00  1.52084688e+00  -4.71800680e-01   7.36743110e-01
C     2.618399058805871e+00   4.391089530348136e+00   6.239388739088032e+00  3.99699300e-01   3.38312256e+00  -1.59525214e+00
C     3.610103699713441e+00   3.498841389349129e+00   3.670284600793528e+00 -4.11930000e-01   2.03974495e+00  -3.02376419e+00
C     5.287687883822130e+00   5.260217242438689e+00   3.541653641683734e+00  1.64729527e+00   1.64177463e+00  -3.38523000e-03
C     3.553794614266015e+00   5.276007323772947e+00   5.370693076924323e+00 -1.40801595e+00   8.19378920e-01  -6.84588310e-01
C     5.351793771536077e+00   3.551615385143402e+00   5.365106496503040e+00  7.31434380e-01  -1.66690348e+00   7.62289470e-01
C     4.531467655427063e+00   4.393033897187385e+00   4.525686090973313e+00 -3.30547698e+00   1.16943468e+00  -1.97710959e+00
C     6.203336667749273e+00   6.243301285982306e+00   4.386996856024671e+00 -4.54436670e-01  -2.26698563e+00   1.42313600e+00
C     4.383858274185262e+00   6.243655214344556e+00   6.153613891280409e+00  1.77447164e+00  -1.89018868e+00   2.09946049e+00
C     6.296741269891847e+00   4.348121177052795e+00   6.238536865721251e+00 -3.24179675e+00   3.86516439e+00  -3.32120325e+00
