64
Lattice="7.10842262195238 0 0 0 7.10842262195238 0 0 0 7.10842262195238 " PBC="1 1 1" Properties=species:S:1:pos:R:3:force:R:3 Energy="-514.25917838"
C     2.978748956797900e-02   7.092331425883558e+00   7.074529732032065e+00 -5.37129710e-01   4.01740600e-01   1.49587547e+00
C     1.793496184792970e+00   1.770765439612543e+00   7.107071379944164e+00  1.16902800e-02   3.68147930e-01   6.61066060e-01
C     5.764219902557999e-04   1.770278228326169e+00   1.756602049710646e+00 -2.24533790e-01   9.97497600e-02   5.01515880e-01
C     1.776068820476647e+00   7.084550688652159e+00   1.826718890676290e+00 -3.66593260e-01   1.08211609e+00  -1.59094399e+00
C     8.960066483751057e-01   8.825037731030585e-01   9.097494329105781e-01  2.26769890e-01  -1.94345120e-01  -1.07524414e+00
C     2.693192673181665e+00   2.680781580539824e+00   9.034531475749129e-01 -1.52750550e+00  -3.83087550e-01  -2.41935660e-01
C     8.851297665873390e-01   2.659932292658459e+00   2.650724895007226e+00 -2.46259210e-01   2.60895930e-01   2.49089150e-01
C     2.672812541193220e+00   8.980417897712119e-01   2.655311675787007e+00 -6.68121780e-01  -5.49924270e-01   1.10637628e+00
C     3.530169842772672e+00   7.102688255472446e+00   7.097565712879795e+00  3.83936660e-01  -2.52055100e-02   1.00249612e+00
C     5.317988174997916e+00   1.796187078175771e+00   7.092825319087195e+00  2.21259900e-02  -1.67829516e+00   1.59928890e-01
C     3.543956557359936e+00   1.783656635118139e+00   1.790301730751768e+00  8.16773380e-01  -2.51951290e-01  -4.70438510e-01
C     5.363552239897175e+00   5.549190118303000e-03   1.774422580882081e+00 -1.14070666e+00   1.59781520e-01  -6.00698070e-01
C     4.425729584617658e+00   8.767851892737210e-01   8.826241897822413e-01  6.03543250e-01   8.28580110e-01   1.14181310e-01
C     6.215956819100368e+00   2.650551876000654e+00   8.482129556368572e-01  4.09172600e-02   5.03899490e-01   1.13503603e+00
C     4.458012130525257e+00   2.650533820607200e+00   2.684017192347995e+00 -5.76052350e-01   4.66310970e-01  -8.51638340e-01
C     6.219118929818650e+00   8.939044745536932e-01   2.670257987356271e+00 -5.02091200e-02   3.48241600e-01  -1.83073140e-01
C     7.103215842599302e+00   3.544193125664729e+00   3.413677794802600e-03  6.66116050e-01   9.32181130e-01  -5.98507450e-01
C     1.785575411635956e+00   5.342513796889893e+00   4.039233202207840e-02 -2.16656840e-01  -2.71242600e-02  -1.29025153e+00
C     7.094176345890353e+00   5.343903564596329e+00   1.771357926637920e+00 -2.70114920e-01  -7.74468520e-01  -3.44135930e-01
C     1.758533265968047e+00   3.573626473617780e+00   1.775885991846860e+00  9.14160530e-01  -7.80699560e-01   8.07525100e-02
C     8.771163706835867e-01   4.453840552710710e+00   8.864821439907941e-01  3.47059700e-02  -1.91718560e-01   4.58853670e-01
C     2.665643696980950e+00   6.210570056438932e+00   9.376253965518129e-01 -4.59928100e-02   2.09505260e-01  -1.03277176e+00
C     8.338985117542846e-01   6.217913767847654e+00   2.652978549314670e+00  1.83004349e+00   1.85721520e-01   1.03356436e+00
C     2.690845472032541e+00   4.422644884621708e+00   2.667755822594031e+00 -9.26857440e-01   9.44548050e-01  -2.54818790e-01
C     3.529353938024348e+00   3.566236415293575e+00   1.499493317998520e-02  9.21258130e-01   2.53166280e-01   2.86757200e-02
C     5.339940050311870e+00   5.332826509627584e+00   6.495676590155999e-03 -6.55860970e-01   7.35058950e-01   1.08523620e-01
C     3.571585858736256e+00   5.330257596776941e+00   1.787617163865099e+00  1.36844480e-01   1.87593770e-01   2.85758940e-01
C     5.333113476648752e+00   3.556360968084514e+00   1.763955712911036e+00 -1.36340430e-01  -8.44348440e-01   3.71334690e-01
C     4.452091312072381e+00   4.462475509088355e+00   9.158816558521733e-01 -2.27390060e-01  -6.99296410e-01  -1.15492989e+00
C     6.226228205449363e+00   6.231388138344995e+00   8.578666200601744e-01  2.61545400e-01  -3.40863540e-01   9.07571270e-01
C     4.469094730063646e+00   6.239594954428238e+00   2.658654909113645e+00 -1.92393060e-01  -9.58540390e-01   1.98837320e-01
C     6.203672043128484e+00   4.409205345395206e+00   2.656870695036025e+00  8.38526210e-01   1.28922508e+00  -9.10099300e-02
C     7.097008199293708e+00   2.439688835832820e-02   3.556514438928880e+00  3.58349030e-01  -5.10254280e-01   2.68222120e-01
C     1.773966220149877e+00   1.791682115340346e+00   3.564770445296652e+00  2.18823420e-01  -2.56161630e-01  -1.35177660e+00
C     2.060852560722540e-02   1.752519682599980e+00   5.340064163370815e+00 -1.51684060e-01   1.32080199e+00  -1.01188120e-01
C     1.776581124494870e+00   1.866458527333400e-03   5.302811550535765e+00  1.96924040e-01  -6.74488580e-01   5.56837200e-01
C     9.102081394222465e-01   9.125547008133349e-01   4.446747697536248e+00 -7.27476340e-01  -8.07367280e-01  -4.99333970e-01
C     2.677744435891203e+00   2.665403574464847e+00   4.387724687416733e+00 -6.21869380e-01   4.09997430e-01   2.35774455e+00
C     9.506606086996902e-01   2.696211264847248e+00   6.224534908097053e+00 -2.26314263e+00  -1.31717167e+00   1.28331900e-02
C     2.640382140095126e+00   8.672916065278062e-01   6.212258520063862e+00  6.06748870e-01   5.62640970e-01  -2.66836830e-01
C     3.554318789350015e+00   7.097250027831240e+00   3.538885692999732e+00  3.34624000e-01   2.52029260e-01   3.12078470e-01
C     5.308279278130842e+00   1.769863807287422e+00   3.569869103589300e+00  7.75277570e-01  -3.70037200e-02  -2.19848830e-01
C     3.515958826439220e+00   1.762337551585819e+00   5.308656522119286e+00  9.41431500e-01   3.24382130e-01   6.69714470e-01
C     5.329454558273560e+00   5.188366586111800e-03   5.322525196819358e+00 -2.38588620e-01  -6.38135920e-01   7.77459070e-01
C     4.430572197527534e+00   8.697136593671188e-01   4.444505985378805e+00 -9.23610600e-02   4.75457210e-01   3.24708900e-02
C     6.199772220310700e+00   2.660085408081694e+00   4.452910842116240e+00  3.95816940e-01  -3.32133960e-01   6.20281060e-01
C     4.398765702682796e+00   2.672631560753315e+00   6.240709910516185e+00  6.09011160e-01  -3.22862550e-01  -8.08810620e-01
C     6.248479558608297e+00   8.391133927567690e-01   6.213561636098560e+00 -8.92773950e-01   2.27601188e+00  -2.28175450e-01
C     7.090162575057970e+00   3.534628885197971e+00   3.536692744621462e+00  2.29775640e-01   3.26542270e-01   8.78684910e-01
C     1.784779908060552e+00   5.341027283551599e+00   3.523568677190835e+00 -1.13357521e+00  -1.03965930e+00   8.35378720e-01
C     1.238614207844520e-02   5.328192031332021e+00   5.345350626189083e+00 -4.36515760e-01   6.06407350e-01  -4.31678970e-01
C     1.785988553158631e+00   3.579216252829243e+00   5.335467004294008e+00  1.62077900e-01  -4.00969930e-01  -6.98113070e-01
C     8.739586671873304e-01   4.446099196140626e+00   4.449240194843725e+00  4.65386600e-01  -2.15373330e-01  -7.32299160e-01
C     2.656789943355061e+00   6.190077540288866e+00   4.412997759947202e+00  4.30513590e-01   1.13259286e+00   3.51624100e-01
C     9.115756577658822e-01   6.227085339048883e+00   6.217867918521756e+00 -4.04440500e-02  -5.28971020e-01  -1.14959400e-01
C     2.661717217578341e+00   4.466252569447492e+00   6.225475778915037e+00  2.02395830e-01  -5.63036800e-01   1.54850600e-01
C     3.563104941876787e+00   3.545759964178630e+00   3.553782743200240e+00  5.99005790e-01   3.01598090e-01  -2.50461500e-01
C     5.361156914726914e+00   5.327660747825403e+00   3.544188007600443e+00 -8.11647280e-01   1.68539780e-01   6.20803860e-01
C     3.552571823406923e+00   5.309638621788465e+00   5.313508944652376e+00  1.10198830e-01   1.20276840e+00   7.06506820e-01
C     5.300097199358317e+00   3.551560792457680e+00   5.381703099467763e+00  9.64587600e-01   5.00729590e-01  -1.63868760e+00
C     4.463801585328117e+00   4.452279045513775e+00   4.448232220516209e+00 -6.83247930e-01  -6.73726180e-01  -2.26356700e-02
C     6.219722363814861e+00   6.235729252039030e+00   4.459946261235933e+00  4.05632490e-01  -5.87984010e-01  -7.39682080e-01
C     4.430253669109931e+00   6.229836440771276e+00   6.243706181734741e+00  1.49836670e-01  -6.38700450e-01  -1.29922187e+00
C     6.213056724839860e+00   4.479776343482042e+00   6.228126083204677e+00  2.07527000e-01  -1.85197995e+00   1.29942550e-01
