64
Lattice="9.86 0 0 4.93 8.53901048131456 0 0 0 30 " PBC="1 1 1" Properties=species:S:1:pos:R:3:force:R:3 Energy="-513.48820526"
C     9.855581536799999e+00   5.221072074266048e-01  -5.549490000000290e-02  2.51445640e-01  -7.87976350e-01  -1.82027690e-01
C     1.240216534600000e+00   1.212125858492349e+00  -2.100689999999972e-02 -1.13172033e+00   1.12479677e+00   1.34008340e-01
C     1.222076402400000e+00   2.571867982075392e-01   3.146969400000000e+00  6.85809790e-01  -1.58133220e+00   9.47888090e-01
C     2.505040671200000e+00   8.851056663376928e-01   3.328954500000000e+00 -7.70210810e-01   1.63147154e+00  -1.04827658e+00
C     2.470157174400000e+00   5.433345043590464e-01  -4.400700000000057e-02 -1.23217225e+00  -2.45733966e+00   1.46853700e-01
C     3.669717576600000e+00   1.222985772020813e+00   4.873500000000000e-02  1.00636237e+00   7.73744020e-01  -1.22109950e-01
C     3.741799254500000e+00   1.839076573614280e-01   3.231714600000000e+00 -2.14996100e-01   2.01584384e+00   1.06099470e+00
C     4.951841132500000e+00   9.979277692552169e-01   3.401257500000000e+00 -1.18326100e-01  -3.51206689e+00  -1.26371127e+00
C     4.865851185099999e+00   4.472522775865144e-01   1.971150000000000e-02  1.63483492e+00   2.69059639e+00  -1.47183730e-01
C     6.116855151299999e+00   1.126647716494300e+00  -4.006560000000192e-02  5.75607520e-01   2.81501256e+00  -1.46112050e-01
C     6.177252581299999e+00   2.778354063997512e-01   3.347304000000000e+00 -4.55854640e-01  -2.78217886e+00   9.31358890e-01
C     7.409279843600000e+00   9.239417691215712e-01   3.255008100000000e+00 -9.43009600e-02   2.68737050e-01   5.63581950e-01
C     7.410512047800000e+00   5.152281805839168e-01  -7.013189999999980e-02 -2.49892568e+00  -9.95413940e-01   7.95781800e-02
C     8.610453095300000e+00   1.230258020296105e+00  -9.901469999999790e-02  1.23242753e+00  -2.54987088e+00   2.98705390e-01
C     8.625489545999999e+00   1.734317431342496e-01   3.214585800000000e+00 -5.98455850e-01   9.47773760e-01   1.01230200e-01
C     9.812849874399999e+00   9.330901233894240e-01   3.182742600000000e+00  2.44957263e+00  -9.25828330e-01   6.09069840e-01
C     1.105622151040000e+01   2.634717660911336e+00   1.185801000000000e-01  5.62505110e-01   4.65681590e-01   1.52560668e+00
C     2.432670391100000e+00   3.353396390581838e+00   3.462621000000000e-01  2.89484550e-01   3.91795100e-02  -1.63611670e+00
C     2.513322578199999e+00   2.342196608117766e+00   3.452609100000000e+00 -7.24937100e-01  -1.20581810e+00  -5.00602500e-02
C     3.708332146700000e+00   3.082569547813756e+00   3.443720700000000e+00  7.69667930e-01  -4.81452190e-01   8.52626360e-01
C     3.709484583500000e+00   2.678788604069978e+00   1.696884000000000e-01 -3.73935664e+00  -2.46572059e+00   3.37147960e-01
C     4.875849767400000e+00   3.335439961613760e+00   1.082220000000000e-01  3.95973186e+00   1.71399133e+00  -6.05124980e-01
C     4.973929208700000e+00   2.364426299490455e+00   3.351131100000000e+00 -2.30918660e+00   1.94024133e+00   3.58442690e-01
C     6.162662098400000e+00   3.077440932729363e+00   3.302023200000000e+00  2.02634379e+00   4.22715800e-01   1.59311000e-01
C     6.101175631399999e+00   2.568858322441611e+00  -9.117060000000166e-02  9.15691800e-01   8.27988410e-01   7.43463500e-01
C     7.383116530799999e+00   3.286414257624097e+00  -1.141811999999973e-01 -1.42056115e+00   7.60090060e-01   1.80208750e-01
C     7.384906663100000e+00   2.343210274051847e+00   3.325123800000000e+00  2.11790222e+00   4.34235750e-01  -8.94770750e-01
C     8.681949976600000e+00   3.032574409964299e+00   3.327767700000000e+00 -2.74702549e+00   1.55259921e+00   1.11202903e+00
C     8.610406161700000e+00   2.576755626284039e+00  -3.249239999999887e-02 -6.58292000e-02   4.07032742e+00   2.56307860e-01
C     9.811219819199998e+00   3.350123644035168e+00   2.091015000000000e-01  1.08567919e+00  -8.97032670e-01  -1.87629124e+00
C     9.903147162800000e+00   2.326216703905494e+00   3.396177600000000e+00 -1.67221650e+00   3.40274920e-01  -7.95128700e-01
C     1.111677329870000e+01   3.023119590610319e+00   3.510183300000000e+00  1.30160509e+00   1.84739500e-02   1.06960450e-01
C     1.229806997360000e+01   4.774955399683269e+00   3.418449000000000e-01  1.47947026e+00   8.42881340e-01  -7.74496300e-02
C     3.742886319500000e+00   5.513571181802684e+00   1.521789000000000e-01 -2.75780537e+00  -1.33293010e+00   8.85727450e-01
C     3.693280511600000e+00   4.489790021297381e+00   3.636912300000000e+00  9.33038130e-01  -4.51829200e-01  -1.70518732e+00
C     4.955971831599999e+00   5.159302580255823e+00   3.390880500000000e+00 -8.76016720e-01   2.18451912e+00   8.74550900e-02
C     4.967915003100000e+00   4.792156297004077e+00   1.279614000000000e-01 -8.94106240e-01  -9.03697660e-01  -7.53691570e-01
C     6.196515816800000e+00   5.478706145842529e+00  -7.293989999999795e-02 -1.09735855e+00  -7.74082340e-01   2.21150960e-01
C     6.192118749800000e+00   4.512439405035161e+00   3.254567700000000e+00 -6.92056860e-01  -1.20959193e+00   7.95349550e-01
C     7.406100437299999e+00   5.247352330650029e+00   3.271723500000000e+00  1.16230340e-01  -2.65529178e+00   5.16110080e-01
C     7.402352059700000e+00   4.742382063355737e+00  -1.264605000000003e-01  1.58404089e+00   2.84586460e-01  -8.87816600e-02
C     8.672712931400000e+00   5.519564627868490e+00  -1.183244999999999e-01 -1.91027684e+00  -1.86061445e+00   7.15434660e-01
C     8.607703190599999e+00   4.495449335883106e+00   3.437525700000000e+00  1.40288774e+00  -1.83600588e+00  -1.19810454e+00
C     9.867762334300000e+00   5.126360358675556e+00   3.482329200000000e+00  2.45113500e-01   2.16285646e+00   5.47056960e-01
C     9.890041349400001e+00   4.773388320479979e+00   1.273632000000000e-01 -2.47800842e+00   5.55237900e-01   4.28804570e-01
C     1.105852342600000e+01   5.508755777622698e+00   3.457140000000000e-01  1.95036473e+00  -7.25681000e-01  -9.85453560e-01
C     1.112975591140000e+01   4.440379549495489e+00   3.589888200000000e+00 -2.19583150e+00  -1.50135510e-01   1.45358700e-02
C     1.230306258460000e+01   5.176212553489577e+00   3.647552100000000e+00  2.05604571e+00   9.31939070e-01  -6.15782520e-01
C     1.348393444140000e+01   6.909606917799186e+00   3.369510000000000e-02  2.88173755e+00   1.17039009e+00   1.49593110e-01
C     4.922805848199999e+00   7.639856945961240e+00  -3.093210000000113e-02 -1.86622830e+00  -9.01938700e-01  -4.50977890e-01
C     4.956930322200000e+00   6.609479997590871e+00   3.265081500000000e+00 -4.98308050e-01  -4.48959310e-01   5.38403010e-01
C     6.177611288100000e+00   7.354002725599931e+00   3.189492900000000e+00 -3.31918650e-01  -4.44581380e-01  -1.77427770e-01
C     6.125893073799999e+00   6.887765153672603e+00  -1.079708999999980e-01  9.99096880e-01   1.07046339e+00   3.32844440e-01
C     7.361429263600000e+00   7.595936716337570e+00  -9.608130000000159e-02 -3.17058630e-01   2.49813722e+00  -4.45287750e-01
C     7.415545282000000e+00   6.612597931877538e+00   3.255422700000000e+00 -2.21220870e-01   2.89076644e+00  -1.07142482e+00
C     8.659519561200000e+00   7.327468348264064e+00   3.166343100000000e+00  6.96577310e-01  -1.57745151e+00   1.96997893e+00
C     8.580242499000001e+00   6.946091206316662e+00  -1.076864999999998e-01  2.57727933e+00  -1.86877969e+00   5.75252570e-01
C     9.864326814500000e+00   7.632836598495109e+00   3.256290000000001e-02 -2.49531906e+00  -2.40149404e+00   1.11122070e-01
C     9.869868528900000e+00   6.579267697661058e+00   3.456311700000000e+00  8.25492000e-01   7.58794290e-01  -6.66642010e-01
C     1.111730209050000e+01   7.337510309978649e+00   3.537908400000000e+00 -7.58164170e-01   3.51558660e-01  -1.71168716e+00
C     1.107110621570000e+01   6.916674742163586e+00   2.213409000000000e-01 -4.54427970e-01   8.03760430e-01  -9.55605120e-01
C     1.227298357000000e+01   7.650170533599193e+00   5.310060000000000e-02  1.37705599e+00  -1.37269692e+00   3.51951560e-01
C     1.235691706650000e+01   6.606071993118197e+00   3.455556900000000e+00 -2.39988498e+00  -3.96233950e-01   1.34432869e+00
C     1.354867081370000e+01   7.292921817394814e+00   3.317128800000000e+00  2.07159482e+00   6.29803430e-01  -4.24532200e-01
