64
Lattice="9.86 0 0 4.93 8.53901048131456 0 0 0 30 " PBC="1 1 1" Properties=species:S:1:pos:R:3:force:R:3 Energy="-515.4773538"
C     9.860329964900000e+00   3.188219735829128e-01  -1.115907000000007e-01  1.20865552e+00  -9.00778260e-01   2.85020300e-02
C     1.244109164000000e+00   1.031957689990427e+00  -2.191431000000001e-01  6.57255700e-02  -1.23471033e+00   4.16775420e-01
C     1.210504509200000e+00   3.885997785718048e-01   3.733044300000000e+00 -1.48212140e-01   1.12565013e+00  -3.42112030e-01
C     2.439008892099999e+00   1.120555303297029e+00   3.597288300000000e+00  1.55953740e-01   1.00655438e+00   3.26296040e-01
C     2.462705775200000e+00   3.069702539871968e-01  -7.719360000000108e-02  1.50221918e+00   5.78664380e-01  -3.24752640e-01
C     3.744100775700000e+00   1.036863095340873e+00  -1.869815999999993e-01 -1.25355964e+00  -1.32257152e+00   8.18534390e-01
C     3.688656911100000e+00   4.348367271288040e-01   3.608281500000000e+00 -1.53244073e+00  -1.99657012e+00  -3.79071350e-01
C     4.911875988899999e+00   1.083893744921988e+00   3.595049100000000e+00  2.84779550e-01   2.64786030e+00   1.63263050e-01
C     4.975962044899999e+00   2.839600970566360e-01  -6.253260000000083e-02 -9.69262530e-01   1.46337776e+00  -2.47693050e-01
C     6.192804167699999e+00   1.006185333949796e+00  -6.313439999999915e-02 -1.81962500e-02   9.53003120e-01  -4.87172010e-01
C     6.136258300200000e+00   3.896522970035696e-01   3.592224300000000e+00  9.01812650e-01   4.37727150e-01  -1.55474480e-01
C     7.396191728900000e+00   1.109233941642226e+00   3.647336700000000e+00 -2.33288358e+00   8.63125200e-01   3.73499810e-01
C     7.431178459900000e+00   3.318262034231144e-01  -1.142813999999994e-01 -6.32904230e-01  -1.39600350e+00   3.86042510e-01
C     8.653336207299999e+00   1.005160140351567e+00  -1.064979000000008e-01 -3.34552850e-01   1.50809547e+00  -1.05420750e-01
C     8.577299732699998e+00   3.918359781536200e-01   3.714390000000000e+00  2.05144264e+00   2.76628720e-01  -9.54282400e-02
C     9.828522886700000e+00   1.106696489287990e+00   3.756598200000000e+00  1.26768990e-01   7.59735610e-01  -5.97621310e-01
C     1.110117857480000e+01   2.421095357150870e+00  -4.045466999999974e-01  5.93390730e-01   1.11891564e+00   1.94744220e-01
C     2.484116173600000e+00   3.165718930873699e+00  -4.696392000000031e-01  3.84150530e-01  -7.43092700e-02   8.10045100e-02
C     2.448540800600000e+00   2.576807458077653e+00   3.489710100000000e+00  3.01492230e-01  -2.23667629e+00   1.10288430e-01
C     3.693815564499999e+00   3.263198139760759e+00   3.453923700000000e+00 -1.05985566e+00  -1.79053050e-01   1.49275060e-01
C     3.724969467000000e+00   2.453985063816686e+00  -3.159582000000007e-01  1.78332340e-01  -3.67791700e-01  -2.83036300e-02
C     4.984896388099999e+00   3.135587922323657e+00  -2.229248999999989e-01 -1.47013216e+00   1.23785332e+00  -4.67442200e-01
C     4.887897307000000e+00   2.557685198008741e+00   3.602265000000000e+00  1.21807787e+00  -1.38622104e+00  -3.14615130e-01
C     6.114091491900000e+00   3.278309114266587e+00   3.648494400000000e+00  7.94280000e-01  -1.30241361e+00  -2.28104040e-01
C     6.182688103500000e+00   2.447408744895514e+00  -1.153893000000004e-01  1.33282840e+00  -9.43507490e-01   6.41314490e-01
C     7.443816514900000e+00   3.166254412220900e+00  -3.380879999999920e-02 -1.50698666e+00  -1.31132042e+00  -3.82385260e-01
C     7.367852067599999e+00   2.560140846642579e+00   3.698866500000000e+00 -1.08156037e+00  -1.35783026e+00  -3.77435360e-01
C     8.569976809300000e+00   3.252872597508134e+00   3.642797100000000e+00  1.90863939e+00   2.56972510e-01  -4.42993230e-01
C     8.651838719799999e+00   2.442551499564176e+00  -1.239996000000012e-01 -1.25268250e-01  -9.09962150e-01  -9.91567100e-02
C     9.856946407299999e+00   3.106824094741568e+00  -3.204533999999981e-01  1.16947929e+00   2.12627895e+00   4.32254880e-01
C     9.831123708200000e+00   2.542593180106179e+00   3.618763500000000e+00  1.79046950e-01  -4.05049140e-01   3.20142870e-01
C     1.109372638680000e+01   3.258782532051447e+00   3.485350500000000e+00 -1.77613146e+00  -2.95593980e-01  -1.66836120e-01
C     1.238409255760000e+01   4.610423184051485e+00  -5.476574999999997e-01 -1.20196254e+00  -9.82599900e-01   5.47182290e-01
C     3.766663906700000e+00   5.310193641255704e+00  -4.135376999999991e-01 -1.05942391e+00  -3.12026390e-01   4.13337360e-01
C     3.674574957700000e+00   4.671180378369305e+00   3.400199100000000e+00  2.98703370e-01   1.01417017e+00   7.84627800e-02
C     4.881312749699999e+00   5.398231351645132e+00   3.579267600000000e+00  1.15787208e+00  -1.37384260e+00  -3.89197820e-01
C     4.976334457100000e+00   4.576167150318764e+00  -2.627400000000009e-01 -9.90304480e-01  -5.08359340e-01   2.54252180e-01
C     6.144911041799999e+00   5.277575218952837e+00  -2.653979999999834e-02  2.85731566e+00   2.27307740e-01  -2.01882230e-01
C     6.147893839700000e+00   4.675709298747686e+00   3.597311700000000e+00 -1.27059816e+00   8.88997450e-01   7.32891160e-01
C     7.374184751200000e+00   5.379952831201749e+00   3.668006100000000e+00 -1.41125780e-01   5.94676730e-01  -7.52949850e-01
C     7.411767768100001e+00   4.550755055130284e+00   1.666560000000000e-02 -4.55628000e-03   1.43177463e+00  -1.39178580e-01
C     8.659222232899999e+00   5.256420247439161e+00  -3.322319999999834e-02 -1.19661430e-01   1.11305819e+00  -3.30962000e-02
C     8.591645835500000e+00   4.672514001026071e+00   3.539926200000000e+00  5.42830200e-01   1.21306670e-01   7.98497930e-01
C     9.842077379399999e+00   5.374823276826203e+00   3.468964500000000e+00 -5.32423730e-01   6.09491100e-02  -3.67993000e-01
C     9.885285131900000e+00   4.569769211326520e+00  -2.543937000000014e-01 -1.98238240e-01  -1.14808507e+00  -5.72472970e-01
C     1.109924271170000e+01   5.280220348229226e+00  -4.596336000000001e-01  1.20488882e+00   1.23049862e+00   6.50959160e-01
C     1.107339127070000e+01   4.658737161517639e+00   3.355900500000000e+00 -7.11747000e-03   1.27597318e+00   1.27929870e-01
C     1.231150797040000e+01   5.403609988956379e+00   3.283415100000000e+00 -5.41911760e-01  -1.89174761e+00   9.22430520e-01
C     1.360023333860000e+01   6.725858171422791e+00  -2.211476999999995e-01 -1.02990001e+00  -3.91392320e-01  -3.18968470e-01
C     4.935518395500000e+00   7.418676849415031e+00  -6.234959999999745e-02  1.97146285e+00   6.94901180e-01  -3.19741450e-01
C     4.894744485400000e+00   6.787397966051102e+00   3.684333300000000e+00  5.67948690e-01   1.53083946e+00  -2.30576250e-01
C     6.130066811799999e+00   7.522643656904376e+00   3.733071600000000e+00  7.40771000e-02  -9.22081940e-01   9.77886900e-02
C     6.211602602799999e+00   6.699780716537709e+00  -1.205429999999907e-02 -2.27897108e+00   2.74773790e-01   5.03542570e-01
C     7.408339692600000e+00   7.422077681118901e+00   9.795329999999999e-02  1.27465505e+00   2.06326400e-02  -9.40433960e-01
C     7.359448192399999e+00   6.813951726940758e+00   3.683312700000000e+00 -5.82056100e-02  -2.85050620e-01  -2.56125370e-01
C     8.574360466700000e+00   7.520632634546231e+00   3.577436700000000e+00  9.73273310e-01   5.65457210e-01   3.41285840e-01
C     8.671908552600000e+00   6.698641100199048e+00   2.622030000000000e-02 -1.05997210e+00  -1.80634500e-01   1.00379230e-01
C     9.885777047300000e+00   7.413575644554279e+00  -6.337770000000020e-02  5.25336840e-01  -4.20745590e-01  -6.12442380e-01
C     9.811076602699998e+00   6.806857260863660e+00   3.486308100000000e+00  3.73673310e-01  -1.48184700e-02   1.13166500e-02
C     1.105328396990000e+01   7.523141395825255e+00   3.481964400000000e+00  4.26220210e-01  -1.02019629e+00   8.69859900e-02
C     1.112052744440000e+01   6.731161580051709e+00  -3.153824999999983e-01 -3.18411340e-01  -9.59142810e-01   7.88897810e-01
C     1.235086534360000e+01   7.447213795488667e+00  -2.096876999999999e-01  2.63677830e-01  -6.07424360e-01  -4.20509420e-01
C     1.229726500320000e+01   6.777766986910920e+00   3.442834200000000e+00  5.91937670e-01   2.64852613e+00   1.05972550e-01
C     1.356055369130000e+01   7.525117152070117e+00   3.622326300000000e+00 -2.38259009e+00  -1.33581283e+00  -2.14514480e-01
