64
Lattice="7.10842262195238 0 0 0 7.10842262195238 0 0 0 7.10842262195238 " PBC="1 1 1" Properties=species:S:1:pos:R:3:force:R:3 Energy="-511.88241211"
C     7.091562863229884e+00   7.501433089814560e-02   1.236602524243060e-02  2.56296680e-01  -1.68433332e+00   2.51780110e-01
C     1.806305775606888e+00   1.767471609823114e+00   7.064634736660799e-03 -6.37314030e-01  -1.46676770e-01  -1.27018665e+00
C     3.034535857519660e-02   1.844970689848081e+00   1.833887166214750e+00 -1.54275598e+00  -1.96178492e+00  -2.08833225e+00
C     1.736568595493378e+00   5.181862379414500e-02   1.775846611185546e+00  1.28021628e+00  -2.48364620e+00  -3.28252400e-02
C     8.745512252969336e-01   9.285282505354153e-01   9.142981836293422e-01  4.90606310e-01   3.14253670e-01  -1.58325970e-01
C     2.711215865481996e+00   2.651220423148065e+00   8.092210539551450e-01 -8.38146850e-01   3.51307610e-01   2.51502877e+00
C     9.112628160863759e-01   2.684139315048607e+00   2.664508197551632e+00  6.83649230e-01  -3.57020660e-01   1.82379436e+00
C     2.669651070232975e+00   8.256265825198430e-01   2.684744312897795e+00 -4.20762420e-01   2.72692022e+00  -7.67705450e-01
C     3.547193946273762e+00   7.046651351527141e+00   7.065735689156186e+00  5.76333660e-01   1.69821421e+00   2.50605440e-01
C     5.325892385530225e+00   1.709236355098347e+00   1.689416153559680e-02 -6.04362130e-01   2.87989084e+00   6.33617930e-01
C     3.548764338998972e+00   1.706006714365176e+00   1.736452728204672e+00  2.99460040e-01   1.98987058e+00   1.13802921e+00
C     5.328255011956434e+00   1.675455211534000e-04   1.869043149798032e+00  8.60012430e-01  -8.50705260e-01  -2.08328650e+00
C     4.451214914647561e+00   8.075469493439087e-01   9.119995330067129e-01 -4.59468170e-01   1.26212228e+00  -4.66069600e-01
C     6.229832744391513e+00   2.671623159920442e+00   8.544391519254890e-01 -1.44089134e+00  -8.07536490e-01   2.36375100e+00
C     4.412144322727445e+00   2.690604070000366e+00   2.676219110565403e+00  6.11095880e-01  -1.63981001e+00  -1.55538368e+00
C     6.231022623253875e+00   8.900151011171602e-01   2.723101930029125e+00 -6.80675220e-01   1.37926371e+00  -1.56671109e+00
C     7.086049997151169e+00   3.543053858771422e+00   7.106556587978024e+00  1.08064689e+00  -1.12053829e+00   3.84462140e-01
C     1.676311492122805e+00   5.289368243845272e+00   7.064628623417346e+00  2.03690835e+00   1.89701020e+00   1.86152877e+00
C     7.100305654378674e+00   5.295947088980082e+00   1.792001354600210e+00  7.75061530e-01   1.62199315e+00  -6.95405300e-02
C     1.817490025588744e+00   3.522996378085699e+00   1.790231570620509e+00 -3.60667930e-01   6.30075140e-01  -1.04524115e+00
C     8.558292750530562e-01   4.383074854928313e+00   9.536391088616963e-01  7.42172980e-01   1.15332360e+00  -2.86648800e+00
C     2.608230104826830e+00   6.248381746713046e+00   8.395111090023579e-01  1.77190750e-01  -1.06853943e+00   5.28424960e-01
C     9.307301555261865e-01   6.219921328563995e+00   2.680904769503828e+00 -2.00995288e+00  -4.64252140e-01  -6.97683820e-01
C     2.682254730043593e+00   4.469669303864022e+00   2.632615122119382e+00 -1.22852910e-01  -1.24599143e+00   9.87938760e-01
C     3.549680046000881e+00   3.620690842195216e+00   7.069459436345673e+00  9.67493290e-01  -1.51633494e+00   5.50504520e-01
C     5.382330631016655e+00   5.384229290698459e+00   7.091521421126009e+00 -9.22164280e-01  -1.71087289e+00   4.47878360e-01
C     3.529968532244073e+00   5.389470615033089e+00   1.739439118715787e+00  2.73115370e-01  -8.80302600e-01   6.19753970e-01
C     5.294193938709312e+00   3.572629801682229e+00   1.779562112604794e+00  4.92422040e-01  -2.00847400e-01  -1.51781726e+00
C     4.439257055031971e+00   4.506094425221878e+00   8.516585502492237e-01 -1.12463220e-01  -5.43500030e-01   7.34532100e-01
C     6.250250479935618e+00   6.237016516291286e+00   9.245890470563162e-01 -4.59794540e-01   1.76215580e-01  -5.97708770e-01
C     4.437599726298118e+00   6.207450311919467e+00   2.710706689169726e+00 -1.52446630e-01   1.03066990e-01  -7.49108860e-01
C     6.201166253070708e+00   4.445068048355368e+00   2.624632079180218e+00 -8.26580500e-02  -6.89408840e-01   2.14590257e+00
C     1.751678827288260e-02   2.032219834409180e-02   3.543353407700629e+00  6.64803610e-01  -1.21939358e+00   7.15935640e-01
C     1.804039468307180e+00   1.768288509750604e+00   3.608375500006066e+00  1.51123470e-01   3.86822620e-01  -1.43202160e+00
C     3.720761651986600e-03   1.790735771036945e+00   5.322355447687192e+00 -1.02644898e+00  -3.06501550e-01   1.84198590e-01
C     1.735189206083968e+00   2.169120945647760e-02   5.387802268244175e+00  1.07029051e+00  -9.97031450e-01  -3.92693352e+00
C     9.021046798038990e-01   8.989469052234162e-01   4.448063964152793e+00 -9.04060300e-01  -1.39042240e-01   7.16603650e-01
C     2.711673363561820e+00   2.673303022354000e+00   4.493454796792803e+00 -1.20643435e+00  -2.80262510e-01  -1.85030750e+00
C     8.918184368516280e-01   2.615284432350692e+00   6.235034901317507e+00  9.43570000e-02   2.14391793e+00  -6.25065480e-01
C     2.664997754617471e+00   8.594743320041398e-01   6.143876063133271e+00  7.52833730e-01   8.18616720e-01   3.85366121e+00
C     3.541162094259561e+00   7.091791185764438e+00   3.570181163342318e+00  4.45631690e-01  -2.23465470e-01   4.22694770e-01
C     5.271944149403355e+00   1.784928971682894e+00   3.552324237047069e+00  1.71082850e+00  -2.65593710e-01   2.65693960e-01
C     3.581448652953054e+00   1.755693451131357e+00   5.342743398940518e+00 -1.09959210e-01   1.02427420e+00   1.37309800e-02
C     5.433384601789568e+00   5.895867889480400e-03   5.342352720033324e+00 -3.33386087e+00  -2.21701820e-01  -1.83428367e+00
C     4.451468827503548e+00   8.975461194619191e-01   4.451181007471663e+00 -2.81797700e-02  -9.07793590e-01  -1.36526420e-01
C     6.177915313522950e+00   2.637821046509365e+00   4.412648807480786e+00  1.54020397e+00   1.82883406e+00   5.70300030e-01
C     4.474801869332566e+00   2.665706961942269e+00   6.245283256377214e+00 -9.18601310e-01   2.02079610e-01  -8.00360310e-01
C     6.173839486161095e+00   9.357113826771515e-01   6.228876021791088e+00  3.19391383e+00  -1.71441953e+00  -5.28819300e-01
C     7.086711933465543e+00   3.549566026902056e+00   3.541606228504859e+00  7.30979650e-01  -1.69189320e-01   6.00457200e-02
C     1.771279520736422e+00   5.282155185244306e+00   3.565523867010146e+00  6.00264880e-01   1.90316111e+00  -3.17000340e-01
C     7.092867756370237e+00   5.306809896091061e+00   5.302140657608888e+00  1.13377766e+00   7.18722710e-01   5.65393650e-01
C     1.763705212097907e+00   3.550066033349147e+00   5.319367351154649e+00  1.42888895e+00  -6.76867790e-01   1.64716394e+00
C     9.066904654045134e-01   4.414552229805744e+00   4.487254048657151e+00 -1.55088594e+00   1.96877940e-01  -2.48880857e+00
C     2.638262550638294e+00   6.227832576434698e+00   4.436895779206059e+00  1.20910470e-01  -4.79127390e-01   7.92488740e-01
C     8.595372415443268e-01   6.248874715821743e+00   6.167389943233743e+00 -1.31992638e+00  -1.11396522e+00   2.68811120e+00
C     2.655171284440261e+00   4.497690066074026e+00   6.206635757771441e+00 -1.18867727e+00  -1.78762086e+00   9.23678800e-02
C     3.576504531768165e+00   3.554445959030686e+00   3.552128115666983e+00 -1.11911816e+00   6.29908590e-01   4.76332220e-01
C     5.334059607699475e+00   5.290222676244196e+00   3.573214967032308e+00 -7.27363630e-01   1.50085240e+00  -9.80926500e-01
C     3.511830823255333e+00   5.354489925151617e+00   5.328537429587128e+00  2.05817658e+00   2.64550280e-01  -3.96951460e-01
C     5.369196114204777e+00   3.596682926722655e+00   5.303414629110845e+00 -1.81896332e+00  -2.67546137e+00   1.42991104e+00
C     4.423343002807218e+00   4.447094801812782e+00   4.470038230997999e+00  7.11948170e-01   7.16427000e-03  -8.53436930e-01
C     6.259331774169572e+00   6.191571304218232e+00   4.385281380393787e+00 -5.67356410e-01   5.77422760e-01   1.86745361e+00
C     4.511829003002110e+00   6.237050992140992e+00   6.181856578444608e+00 -1.58230512e+00  -7.09695450e-01   5.93425800e-01
C     6.233168158453270e+00   4.394728189718862e+00   6.221276051746914e+00  2.86583910e-01   2.89041518e+00  -4.60908200e-01
