64
Lattice="7.10842262195238 0 0 0 7.10842262195238 0 0 0 7.10842262195238 " PBC="1 1 1" Properties=species:S:1:pos:R:3:force:R:3 Energy="-511.95192233"
C     2.211288108629600e-03   1.707869618681200e-02   1.088271069431520e-02 -5.34093350e-01   5.53872660e-01  -3.22976940e-01
C     1.784303572660786e+00   1.788963001519744e+00   7.103913249942551e+00  7.47168660e-01  -2.05990970e-01  -1.31196020e+00
C     2.144106406447980e-02   1.799365467181852e+00   1.773092595009879e+00 -9.43731520e-01  -5.65548560e-01  -1.75850930e-01
C     1.754859846410710e+00   7.095837655340874e+00   1.754093416283822e+00  1.94676588e+00   1.60922116e+00   1.01311963e+00
C     9.029930193787205e-01   9.470103626000940e-01   8.994423622800303e-01  4.81081200e-02  -1.90984972e+00  -1.18290996e+00
C     2.699411689963451e+00   2.657203795719998e+00   8.575920927785899e-01 -8.85783720e-01   8.37953050e-01   1.22199482e+00
C     8.670334286182477e-01   2.670381958246764e+00   2.646315327203361e+00  1.90334669e+00   4.64860360e-01   9.29605090e-01
C     2.632193166152659e+00   8.786111297921204e-01   2.727923288755366e+00  9.07097530e-01   1.24317880e-01  -2.90933867e+00
C     3.602269222807033e+00   7.103184920960905e+00   9.139298962533999e-04 -1.16348291e+00  -4.10926480e-01  -9.76769120e-01
C     5.315038179610617e+00   1.775054946158356e+00   2.928641685749520e-02  7.24975110e-01  -3.48703040e-01  -2.94395000e-01
C     3.601441233740256e+00   1.766239933435747e+00   1.735578463306638e+00 -2.09893433e+00  -4.58683380e-01   1.94558505e+00
C     5.308696258201731e+00   7.044698454580748e+00   1.775194484494387e+00  2.45415147e+00   1.83074999e+00   4.41373360e-01
C     4.464165820903164e+00   8.503369523157132e-01   8.734890137048270e-01  2.03601920e-01   4.43244100e-01   9.86919190e-01
C     6.210512122794579e+00   2.685204867599345e+00   8.821359122324736e-01  8.50513000e-03  -1.55167344e+00   7.43991880e-01
C     4.427499937271168e+00   2.652572871635747e+00   2.677889234459972e+00  4.97788190e-01   6.33794760e-01  -1.48140485e+00
C     6.280775041845065e+00   8.717814284230506e-01   2.643899032186370e+00 -2.91257887e+00   7.18544630e-01   1.43230190e-01
C     7.106224482473217e+00   3.501625687405157e+00   7.100597881632583e+00 -3.23183170e-01   1.66016898e+00   3.04428430e-01
C     1.741435945713971e+00   5.384366341086571e+00   2.059509068847360e-02  1.07833572e+00  -2.12413132e+00  -3.26131190e-01
C     4.296423041022060e-02   5.306057753893639e+00   1.789646049849299e+00 -1.81489727e+00   3.28620820e-01   2.28704680e-01
C     1.782571107899839e+00   3.551414643288613e+00   1.743220941718079e+00  5.03305480e-01   2.15566390e-01   1.40170861e+00
C     8.379033970583926e-01   4.416888555068260e+00   9.234261091156842e-01  2.43190641e+00   7.19061300e-02  -2.24650722e+00
C     2.725702404276199e+00   6.227968276222513e+00   9.422475772762416e-01 -3.09615816e+00   1.61842840e+00  -3.13172582e+00
C     9.255444190564442e-01   6.198275755180737e+00   2.588435920114951e+00 -1.06771107e+00   3.30792640e-01   3.39005688e+00
C     2.694340043676759e+00   4.512523069386727e+00   2.675823740099279e+00 -1.38573476e+00  -3.25523075e+00   2.29199330e-01
C     3.568108560559005e+00   3.577018328555139e+00   2.413615141662660e-02 -1.21679022e+00   1.79750400e-02  -5.10748530e-01
C     5.364382077153834e+00   5.343027451508414e+00   1.821959801732200e-02  4.70183620e-01  -3.22295430e-01  -1.14015911e+00
C     3.536609291739904e+00   5.393914658686660e+00   1.788112478753260e+00  1.77398467e+00  -2.50110387e+00   7.01075330e-01
C     5.330331808709094e+00   3.540657111916636e+00   1.774796981501476e+00 -9.19375200e-02   2.04548170e+00   5.11003300e-01
C     4.445363545483682e+00   4.510368151069474e+00   8.726150331436980e-01 -5.58154100e-02  -1.82109043e+00   1.34149363e+00
C     6.285641894476074e+00   6.195594031663116e+00   9.344126027802513e-01 -2.03472528e+00   6.17166450e-01  -1.77809584e+00
C     4.439959367186827e+00   6.205081287912900e+00   2.670255641576806e+00 -1.19720970e-01   5.20327140e-01   7.91069860e-01
C     6.240255540142314e+00   4.471303388055907e+00   2.700559842385033e+00 -3.49495070e-01  -1.81661078e+00  -1.35747880e+00
C     7.104768890773320e+00   7.098786371212102e+00   3.531037994427253e+00  7.01579780e-01  -5.28581910e-01  -3.46480680e-01
C     1.772432649053838e+00   1.770981819997096e+00   3.577421518286146e+00 -5.65082130e-01  -1.19508550e-01  -7.76272150e-01
C     7.093771521222144e+00   1.811053988664370e+00   5.310838239189816e+00 -9.21806580e-01  -1.95595086e+00   3.35577700e-01
C     1.727667144351710e+00   7.094350360076090e+00   5.359133431143905e+00  2.07506094e+00   8.46845220e-01  -1.20678538e+00
C     8.736615351218144e-01   8.737410783709322e-01   4.433062988813581e+00 -2.09692290e-01   4.05116490e-01   5.63740170e-01
C     2.645424997270206e+00   2.644637384043910e+00   4.453559556764541e+00  7.31187600e-02   8.04484690e-01  -1.31018140e-01
C     8.522041216853086e-01   2.662322997354017e+00   6.187505357563818e+00  1.34878330e+00   2.94406760e-01   3.19368930e-01
C     2.690775880575091e+00   8.578966886878570e-01   6.193066845253254e+00 -1.14894398e+00   6.89250490e-01   1.33592874e+00
C     3.528596677762639e+00   2.370730027996200e-03   3.560639314406813e+00  4.51151140e-01  -4.81911860e-01   7.50286070e-01
C     5.323469408595972e+00   1.816741650855310e+00   3.513625486714205e+00  6.45413710e-01  -2.68456384e+00   1.13047464e+00
C     3.587526141040475e+00   1.768585073142311e+00   5.320738708046499e+00 -1.89340372e+00  -1.92277310e-01   1.44986037e+00
C     5.351928191807820e+00   1.171539132002200e-02   5.295998127454494e+00 -6.63835890e-01  -1.86179400e-01   3.09176800e-01
C     4.427466456600629e+00   8.801681586828052e-01   4.428459289987964e+00  1.21933059e+00   6.57156680e-01  -6.85331160e-01
C     6.169908954957592e+00   2.637987241430221e+00   4.451333909642220e+00  1.35115185e+00   2.31442916e+00  -7.29816440e-01
C     4.410888193366265e+00   2.630252993282756e+00   6.322108529022032e+00  6.17343260e-01   1.75645814e+00  -3.76399192e+00
C     6.179556435053230e+00   9.285544806148831e-01   6.212258022474278e+00  1.51010460e+00  -1.22596421e+00   1.95211280e-01
C     3.803809353456060e-02   3.579541320995656e+00   3.529260746603800e+00 -1.75357245e+00  -2.96343570e-01   1.36037566e+00
C     1.760924823674320e+00   5.326110543020433e+00   3.584187741441218e+00  2.23466016e+00   1.71688852e+00  -1.89235869e+00
C     6.324150352335399e-03   5.359504277551991e+00   5.265862325178135e+00 -3.14169440e-01  -1.66080170e+00   3.19479540e+00
C     1.704642821317077e+00   3.570627145777497e+00   5.257406714303192e+00  3.03887712e+00  -5.76426020e-01   3.84981490e+00
C     9.255590624070414e-01   4.502853055591384e+00   4.453821359969636e+00 -2.39164775e+00  -2.04663127e+00  -1.94059382e+00
C     2.653607004958504e+00   6.220388209761676e+00   4.483959508025460e+00 -1.67365450e-01  -2.09623070e-01  -9.64050050e-01
C     8.586088815501548e-01   6.233805144204248e+00   6.190381567524323e+00  1.90343900e-02   2.25603840e-01   1.86971511e+00
C     2.650428758120876e+00   4.459455140317117e+00   6.238494783859341e+00 -2.31974480e-01  -4.97815270e-01  -4.45195190e-01
C     3.540832689955350e+00   3.507349033877650e+00   3.589738566496724e+00  2.00076060e-01   2.08622458e+00  -1.62117719e+00
C     5.324271096499056e+00   5.282792028826832e+00   3.565291350506246e+00 -8.48398200e-02   1.62145051e+00  -3.14019120e-01
C     3.563056035929161e+00   5.312935508199621e+00   5.343991140363007e+00 -5.58274880e-01   1.01487251e+00  -2.99240270e-01
C     5.288686119610658e+00   3.563538413488155e+00   5.354065339068524e+00  1.20790000e+00  -1.52753505e+00   5.18778040e-01
C     4.438976698843837e+00   4.438845903867629e+00   4.445254289028012e+00 -6.33075980e-01  -1.23372621e+00   8.33569440e-01
C     6.219470085896077e+00   6.181540324722246e+00   4.426968938101455e+00 -3.06116860e-01   1.76710722e+00  -6.65683530e-01
C     4.475098574892725e+00   6.235283411772303e+00   6.165736097626973e+00  1.30683860e-01  -7.82781810e-01   2.12010281e+00
C     6.230345972504677e+00   4.373619515496094e+00   6.248727855810414e+00 -5.89811890e-01   2.63091786e+00  -1.54340645e+00
