64
Lattice="7.10842262195238 0 0 0 7.10842262195238 0 0 0 7.10842262195238 " PBC="1 1 1" Properties=species:S:1:pos:R:3:force:R:3 Energy="-509.85478612"
C     2.729833321913360e-02   7.101636990851175e+00   1.119541020536900e-02 -3.88579340e-01   5.90376190e-01  -1.26515634e+00
C     1.782931007337090e+00   1.824745308220073e+00   7.060472257627207e+00 -4.53633500e-02  -1.36696171e+00   2.65295274e+00
C     5.373057622624640e-02   1.789550939154644e+00   1.757936300636420e+00 -2.75422073e+00  -1.83203390e-01   3.14365000e-03
C     1.692734223070243e+00   5.269395495557180e-02   1.845564172052624e+00  3.88541144e+00  -9.21992190e-01  -2.77489635e+00
C     9.420008439271015e-01   9.092906553146832e-01   8.637690987826914e-01 -2.66937467e+00   5.66884480e-01   9.14729080e-01
C     2.648004288417873e+00   2.682489379074279e+00   8.608525129817054e-01  1.54476946e+00   6.62277150e-01   1.17512220e+00
C     8.746834419576656e-01   2.693085193831651e+00   2.646488630546836e+00  1.47151852e+00  -2.00099481e+00   6.97054690e-01
C     2.728118201703607e+00   9.001237045881574e-01   2.626650942288524e+00 -1.90433233e+00  -6.64741300e-01   1.91429982e+00
C     3.561860185991799e+00   6.981039686649600e-03   1.296171105798660e-02 -2.25528693e+00  -2.90234210e-01   4.29577130e-01
C     5.375161360299029e+00   1.732209639658568e+00   7.039361664130331e+00 -2.29734239e+00   9.98670950e-01   3.93782731e+00
C     3.624694519067479e+00   1.750029886493099e+00   1.726068886609829e+00 -1.85036405e+00   2.04970332e+00   1.21484782e+00
C     5.380865229693542e+00   7.077295334936603e+00   1.809763881043066e+00 -1.80597710e-01   2.26109291e+00  -2.48319795e+00
C     4.457811317586242e+00   8.804352932048648e-01   8.646513251140595e-01  1.24241900e+00  -8.21854800e-01  -1.45079870e-01
C     6.153831480096807e+00   2.635230595138185e+00   9.128737268205205e-01  3.56702524e+00   2.52750680e-01  -2.66913115e+00
C     4.497910213922567e+00   2.722302730073958e+00   2.648021206463708e+00 -3.08842781e+00  -7.89331110e-01  -1.46670160e-01
C     6.192144740670988e+00   9.232296323144673e-01   2.651254756829320e+00  2.49932408e+00  -6.20082980e-01   7.79410960e-01
C     5.776659642143000e-03   3.524598616544246e+00   7.101205580682366e+00 -1.23975565e+00   2.08080160e-01   2.38994870e-01
C     1.710742700935752e+00   5.296129064599155e+00   5.740228976215500e-02  2.35712078e+00   1.68245809e+00  -1.48663246e+00
C     7.092024342026374e+00   5.230288295260571e+00   1.774950736682747e+00 -8.57465000e-03   2.64921891e+00   1.26971580e-01
C     1.730200586173477e+00   3.602502805574327e+00   1.770703596335749e+00  2.70433284e+00  -3.40191983e+00   8.73285330e-01
C     8.850890353257264e-01   4.354584865741161e+00   8.995548175258787e-01 -1.82696915e+00   3.44743697e+00  -8.93842200e-01
C     2.635045420728934e+00   6.272209321503738e+00   9.672270719525049e-01  6.31969160e-01  -2.04432940e+00  -1.14307231e+00
C     8.586253020064070e-01   6.239585286973474e+00   2.682104386905179e+00 -2.76690000e-02  -6.72771670e-01  -6.81553760e-01
C     2.645770182272633e+00   4.426541508649315e+00   2.656558066609197e+00  1.85641479e+00   1.43113737e+00   3.53784120e-01
C     3.556800837276240e+00   3.618409749376458e+00   2.757286050071800e-03  7.21574000e-02  -1.51093962e+00  -1.16079140e-01
C     5.334271865198907e+00   5.382813221828328e+00   7.103813589857418e+00  6.46207150e-01   7.59032260e-01  -2.70378243e+00
C     3.601258049689339e+00   5.363798546740958e+00   1.815109201600627e+00 -6.33446410e-01   8.90377400e-02  -1.29049933e+00
C     5.323572622892415e+00   3.572477183848578e+00   1.722885379539462e+00 -1.82102950e-01   1.42362900e-02   1.01254811e+00
C     4.515339568597224e+00   4.557367122158807e+00   8.331039322738210e-01 -3.74018913e+00  -3.33317951e+00   2.45793154e+00
C     6.241263372301378e+00   6.231420694920595e+00   8.331436683562667e-01  4.19773900e-01  -1.11535508e+00   2.80591150e+00
C     4.550642412191834e+00   6.250803586299680e+00   2.656248921309454e+00 -3.71551106e+00  -2.80493251e+00   2.58593673e+00
C     6.189065585244682e+00   4.353305136416883e+00   2.669498665652002e+00  1.61218347e+00   2.11705906e+00  -4.96352800e-02
C     3.482160338323680e-02   5.698793980763520e-02   3.559233766002161e+00 -2.57492316e+00  -1.89751406e+00   3.17356230e-01
C     1.857088844393752e+00   1.783326093466309e+00   3.522518123411825e+00 -1.49691217e+00   1.35884317e+00   1.25901017e+00
C     2.282372334829600e-02   1.769344537015032e+00   5.342267845467241e+00 -9.09676970e-01   5.30949870e-01  -2.94628630e-01
C     1.723095149090978e+00   7.090138619673740e+00   5.277133155747502e+00  9.09421680e-01  -9.12280700e-02   2.66046888e+00
C     8.614169928219596e-01   9.129652833038659e-01   4.449142809453830e+00  2.25407266e+00  -1.88440220e-01  -1.35319490e+00
C     2.713391042803717e+00   2.680633369928197e+00   4.507062236961591e+00 -8.82958740e-01  -9.77287830e-01  -1.99373536e+00
C     9.313547015375798e-01   2.667846881487793e+00   6.224638833235758e+00 -2.53258403e+00   6.15405890e-01  -1.33950909e+00
C     2.565393612771091e+00   8.714331157146705e-01   6.284943491953659e+00  3.59254044e+00  -9.66827800e-01  -3.35627339e+00
C     3.499638385693284e+00   7.041547290833302e+00   3.584760609220164e+00  3.88653676e+00   2.95285367e+00  -2.34114548e+00
C     5.304950617070574e+00   1.827280456063270e+00   3.536854532320294e+00  4.60141970e-01  -1.18117481e+00   3.86112190e-01
C     3.509680738665462e+00   1.677131306503570e+00   5.389354107986347e+00  9.20244080e-01   3.30255937e+00  -1.06063991e+00
C     5.329764912005150e+00   7.199218502125260e-02   5.301550729615655e+00  2.58457280e-01  -3.31776377e+00   1.83309280e-01
C     4.432710126714724e+00   8.967843098097338e-01   4.417560301005850e+00 -1.31503917e+00  -4.73289550e-01   6.46919820e-01
C     6.184754895599462e+00   2.666094015553927e+00   4.470593327720395e+00  1.09932631e+00  -1.46035502e+00   4.16030150e-01
C     4.416409802804802e+00   2.607879375254759e+00   6.266415814899986e+00  2.06111070e-01   6.80740200e-01  -7.06830630e-01
C     6.207987850837991e+00   8.707377698139821e-01   6.201673652277324e+00  2.18324711e+00   6.24549470e-01   1.43779000e-02
C     7.073597391321227e+00   3.446584673468914e+00   3.552792255592369e+00  6.45545620e-01   3.41004962e+00   4.63619560e-01
C     1.784177895748864e+00   5.336163274289637e+00   3.488973548152271e+00 -1.29958500e+00  -4.37138280e-01   2.15861586e+00
C     7.078388254914428e+00   5.272297935597153e+00   5.291423359908941e+00  1.04820682e+00   1.62768346e+00   1.97363395e+00
C     1.787326287211488e+00   3.575671495721327e+00   5.324172644845770e+00 -3.12798080e-01  -7.94737260e-01   2.44282380e-01
C     8.831297407989758e-01   4.427545502260163e+00   4.430264616080766e+00 -2.61054710e-01  -6.55396170e-01  -1.02365630e+00
C     2.647491771146971e+00   6.186062418856185e+00   4.422532073954730e+00 -7.24913910e-01   5.26009280e-01  -1.12498400e-01
C     8.872196428376190e-01   6.224266778395827e+00   6.224723707801840e+00 -1.01294234e+00  -1.88661883e+00  -2.65104350e-01
C     2.628148900187237e+00   4.447310044849716e+00   6.214844493128791e+00  9.90076640e-01   1.13167090e+00   7.83703310e-01
C     3.580321470378200e+00   3.602239438516256e+00   3.607601534951201e+00 -1.71914650e-01  -1.86184343e+00  -1.24669648e+00
C     5.389734550764969e+00   5.313792428546462e+00   3.575942468791602e+00 -8.11892090e-01  -1.92397300e-02   2.52097180e-01
C     3.513969392200561e+00   5.349135434728876e+00   5.310369723054931e+00  1.29138145e+00  -5.16395180e-01   1.49821415e+00
C     5.318967004792690e+00   3.488012702666726e+00   5.429363793618791e+00 -8.92597150e-01   1.69341101e+00  -2.95367903e+00
C     4.477515651836204e+00   4.431566026094035e+00   4.516260464747645e+00 -1.24116626e+00   8.31399600e-01  -1.70082121e+00
C     6.263543016982339e+00   6.198360487578368e+00   4.485755735337307e+00 -1.11394375e+00   1.71347569e+00  -2.46483047e+00
C     4.425817729058146e+00   6.261181101398392e+00   6.182279742843177e+00 -5.08318810e-01  -3.73977000e-03   7.37912240e-01
C     6.157200872418687e+00   4.459046192763789e+00   6.192367092130540e+00  2.64349046e+00  -1.43917897e+00   1.90677435e+00
