64
Lattice="7.10842262195238 0 0 0 7.10842262195238 0 0 0 7.10842262195238 " PBC="1 1 1" Properties=species:S:1:pos:R:3:force:R:3 Energy="-506.95265167"
C     7.021888734825013e+00   7.911709918173100e-02   5.934971322313019e-02  3.09127270e+00  -2.80349204e+00  -8.60630840e-01
C     1.773204979171501e+00   1.725624254774948e+00   7.001624256872596e+00  3.16498380e-01   3.28498981e+00   4.17464940e+00
C     7.077788019708395e+00   1.730294488436288e+00   1.734839045185706e+00  1.75604267e+00   2.52861199e+00   2.50737048e+00
C     1.805650947715134e+00   4.423891275443900e-02   1.758115006381086e+00 -2.47957702e+00  -9.40037060e-01   1.30397000e-02
C     9.290950050709079e-01   9.146497662121275e-01   9.076368807921402e-01 -2.49858769e+00  -1.21405800e-01  -2.04578484e+00
C     2.638456539491593e+00   2.659246258791403e+00   8.732801682482514e-01  1.81925840e+00  -7.72713900e-01  -5.94435210e-01
C     9.356227406470802e-01   2.708353019356018e+00   2.759125780930082e+00 -2.17486812e+00  -6.45470170e-01  -3.92760579e+00
C     2.607208126906752e+00   9.413082703112348e-01   2.624713257366538e+00  1.92162710e+00  -2.79009009e+00   3.38638402e+00
C     3.643523664324466e+00   3.212822205251880e-02   1.585611858039820e-02 -2.96351088e+00  -2.34570318e+00  -4.54997420e-01
C     5.369785473524201e+00   1.827902656295199e+00   4.266581882863300e-02 -2.90005018e+00  -1.74452801e+00  -3.07860150e-01
C     3.556839009505710e+00   1.725201943387094e+00   1.851118338066761e+00  4.41157210e-01   3.35919387e+00  -3.50591330e+00
C     5.281250211960554e+00   4.710780103964480e-02   1.824646145724524e+00  1.82180507e+00  -2.32764124e+00  -1.43543884e+00
C     4.473031658847508e+00   8.901307551531876e-01   9.152227761595256e-01 -1.66779056e+00   7.66436650e-01   6.57750610e-01
C     6.211182020542289e+00   2.635412926178388e+00   9.089286944348728e-01  3.10770871e+00   2.21378339e+00  -1.69334087e+00
C     4.481570367182877e+00   2.711244725677834e+00   2.617014551332173e+00 -7.88779810e-01  -2.79130844e+00   2.53522402e+00
C     6.170843286026765e+00   8.877443155112011e-01   2.618870062888672e+00  2.55407762e+00   1.10580950e-01   2.39698911e+00
C     7.109616835000160e-02   3.570059538231290e+00   7.057972865149788e+00 -1.88065774e+00   1.33642770e-01   2.06141600e-01
C     1.759509678899130e+00   5.283899378902576e+00   7.070185703884758e+00  6.82766520e-01   1.70467695e+00   1.28940450e-01
C     7.094287379451677e+00   5.359155609422480e+00   1.749443512711175e+00  8.93577360e-01   1.04078212e+00   2.43229410e-01
C     1.783442387260373e+00   3.550488629073906e+00   1.763848588982152e+00  6.53685330e-01   4.89719900e-02   1.95668010e-01
C     9.517293600406070e-01   4.453366065500825e+00   8.327243425059130e-01 -3.20301682e+00  -1.42254770e+00   2.38216671e+00
C     2.561931171197114e+00   6.241165347153448e+00   8.309197272553736e-01  4.89459311e+00  -2.04240770e-01   1.78779280e+00
C     9.005738809926820e-01   6.260092162137234e+00   2.684571578228129e+00 -1.12067692e+00  -5.40823610e-01  -5.92289810e-01
C     2.686761043479315e+00   4.438685040263739e+00   2.650631845755130e+00 -1.29153695e+00   1.22489446e+00   9.90309930e-01
C     3.623050056578568e+00   3.556684188061045e+00   7.095533770273868e+00 -2.76352902e+00  -2.80709480e-01   5.12519080e-01
C     5.282938533417030e+00   5.271532998239014e+00   7.072979811564001e+00  2.35592713e+00   1.80192666e+00   6.06425170e-01
C     3.477030047550373e+00   5.400346857062820e+00   1.801918528250050e+00  3.01238176e+00  -1.97356990e+00  -7.64143920e-01
C     5.394003869390541e+00   3.550010871989616e+00   1.722871447031127e+00 -2.00008842e+00   9.34308050e-01   3.03514257e+00
C     4.454978469003720e+00   4.421439935903392e+00   9.539727071352530e-01 -8.86520790e-01   1.49999605e+00  -3.66157041e+00
C     6.214808169089203e+00   6.287066635621801e+00   9.061738963327181e-01 -1.24209510e+00  -2.09256540e+00  -1.97143010e-01
C     4.516990215413814e+00   6.235368641759517e+00   2.702528377861189e+00 -5.68823670e+00   1.01198010e-01   1.64720540e-01
C     6.178145910752743e+00   4.523225652651852e+00   2.651214238820386e+00  3.50203201e+00  -2.75863367e+00  -8.64635050e-01
C     7.017954791578653e+00   6.535128335697000e-03   3.558592870618742e+00  2.10737436e+00  -1.44112609e+00  -5.46449960e-01
C     1.725886697738078e+00   1.741198808735368e+00   3.568488647916496e+00  3.77614730e-01   1.78907870e-01   1.06238193e+00
C     7.070772504172039e+00   1.778419575837081e+00   5.325288951534014e+00  5.52946500e-01   5.39861000e-03   8.80828130e-01
C     1.795603832099800e+00   4.710339381762040e-02   5.389637947301564e+00 -9.96504440e-01  -3.94877906e+00   1.77612250e-01
C     7.849873038959457e-01   7.788964519739988e-01   4.522640913807130e+00  2.11646823e+00   3.90419033e+00  -1.80306643e+00
C     2.615473516392383e+00   2.610950569247730e+00   4.489136145714249e+00  3.20858894e+00  -5.33497360e-01  -2.90925020e+00
C     8.803517692390798e-01   2.717165970636068e+00   6.145706481957920e+00  7.01388900e-01  -3.32058275e+00   6.16827500e-01
C     2.732772867919409e+00   8.763275490254453e-01   6.280309226910776e+00 -8.25475930e-01   6.06729710e-01  -2.33261410e+00
C     3.506707783073100e+00   7.091747753302230e+00   3.614715217803939e+00  9.78856640e-01   7.94544750e-01  -1.07543085e+00
C     5.442517787508648e+00   1.724847517435260e+00   3.589454585013055e+00 -4.10546941e+00   3.37373051e+00  -1.32216115e+00
C     3.592109225440494e+00   1.758479170871909e+00   5.371523767191696e+00 -1.02466429e+00   1.03282039e+00  -1.17909900e-02
C     5.270704724835331e+00   7.047498604419218e+00   5.303594898708488e+00  1.09643294e+00   1.35495909e+00   2.45782552e+00
C     4.398632846264028e+00   8.679620729493246e-01   4.501663105644796e+00  1.69187627e+00   9.12864200e-02  -2.13480503e+00
C     6.281868601580925e+00   2.723873122799168e+00   4.412815144570095e+00  1.94871690e-01  -3.56467330e+00  -2.31088120e-01
C     4.516836957822127e+00   2.676624219570517e+00   6.209390058284012e+00 -2.04391129e+00  -1.48031912e+00   1.89388756e+00
C     6.134098072398330e+00   9.073550318352572e-01   6.313000293866346e+00  2.33313453e+00  -2.50856540e-01  -3.74302470e+00
C     8.833501729844220e-02   3.669626645195820e+00   3.528309568573018e+00 -3.04450005e+00  -2.10642722e+00   6.86153680e-01
C     1.758639536886216e+00   5.362723611072362e+00   3.579858214476055e+00  1.69146002e+00   2.88165400e-02  -9.36592080e-01
C     6.502145254740200e-03   5.389127775810126e+00   5.305086885532200e+00  2.77406340e-01  -1.83461747e+00  -2.70103010e-01
C     1.782727848618610e+00   3.516356045095226e+00   5.220372187874124e+00 -6.82037280e-01   2.04603379e+00   4.12557615e+00
C     9.600459301691022e-01   4.475555788635643e+00   4.426294704215948e+00 -2.54346220e+00   6.41077850e-01  -5.51735320e-01
C     2.637897248799852e+00   6.194647758443942e+00   4.524365772555873e+00  8.32178550e-01   1.26133139e+00  -2.51218380e+00
C     8.718845716352668e-01   6.151490534359588e+00   6.269375975331632e+00 -1.06872460e+00   4.11375955e+00  -1.16322003e+00
C     2.621919291855747e+00   4.435897898838663e+00   6.158916845639155e+00  2.78798799e+00  -1.46505938e+00   1.22090854e+00
C     3.545686747425643e+00   3.543138591169052e+00   3.544568521463291e+00  1.10461281e+00  -5.58813250e-01  -3.48171340e-01
C     5.304813069092877e+00   5.285056203599754e+00   3.572451309190241e+00  1.15812429e+00   1.59260909e+00  -7.00226380e-01
C     3.546342997001922e+00   5.285548035360832e+00   5.332588164217134e+00  1.97730710e-01   3.79315690e-01  -2.44090550e-01
C     5.399776548316018e+00   3.413918699245192e+00   5.349082192643452e+00 -7.08487220e-01   5.91953644e+00  -3.26886885e+00
C     4.491811827072643e+00   4.382372898194587e+00   4.411549561006830e+00 -2.78837809e+00  -3.62740820e-01   1.65677104e+00
C     6.182714778307521e+00   6.211097643565789e+00   4.440341515986878e+00  3.85781530e-01   1.80383190e-01  -6.53952430e-01
C     4.453709117976467e+00   6.163003477803392e+00   6.199124145420435e+00 -1.40464161e+00   5.29028240e-01   1.07203564e+00
C     6.229643091676012e+00   4.455839156814549e+00   6.059205082274308e+00  1.60621400e-01  -1.38325289e+00   5.89297477e+00
