64
Lattice="7.10842262195238 0 0 0 7.10842262195238 0 0 0 7.10842262195238 " PBC="1 1 1" Properties=species:S:1:pos:R:3:force:R:3 Energy="-510.89818088"
C     3.035118748174500e-02   7.105226886442726e+00   7.042809533437936e+00 -2.84340300e-01   2.80861500e-02   2.00048066e+00
C     1.804402993039967e+00   1.802978962736502e+00   2.391486622046600e-03 -1.26003282e+00  -1.26483974e+00   5.60222070e-01
C     7.087026694419157e+00   1.744944449866524e+00   1.758191635176930e+00  1.36489731e+00   1.10519010e+00  -8.46252750e-01
C     1.800494355778133e+00   5.386762661436000e-03   1.834932033255664e+00 -1.88894439e+00  -2.37959536e+00  -1.75106292e+00
C     9.330126700294686e-01   8.285276008752911e-01   8.965858426501835e-01 -1.45585308e+00   2.26707913e+00  -6.04801690e-01
C     2.674444208521415e+00   2.687908556142862e+00   8.926988860773412e-01 -5.83057090e-01  -1.25368616e+00   1.31781939e+00
C     9.030400060522386e-01   2.637976223375160e+00   2.620306461847495e+00 -7.36960470e-01   2.36776260e-01   1.04387287e+00
C     2.667631140861276e+00   8.192063262936852e-01   2.676891567345255e+00  1.45754374e+00   2.97590957e+00  -4.63985370e-01
C     3.506508249650156e+00   7.089876247794836e+00   4.643569968092380e-02  1.46268082e+00   8.62780770e-01  -1.35472044e+00
C     5.343965123536218e+00   1.750510273693758e+00   7.028835582998861e+00 -1.46924862e+00   1.90130754e+00   1.92393864e+00
C     3.529445352339241e+00   1.733883033427542e+00   1.810662741083365e+00  1.68271645e+00   1.46309685e+00  -1.48368596e+00
C     5.404445786798190e+00   5.275451871629420e-02   1.749904067412724e+00 -2.32251203e+00  -2.06943253e+00  -4.21220500e-01
C     4.446678390415703e+00   8.991932831514257e-01   8.456320295519876e-01 -4.12804080e-01  -4.06319150e-01   1.26427115e+00
C     6.222351840426225e+00   2.629737419390128e+00   8.442844147916880e-01 -5.92603460e-01   5.71824620e-01   6.43345850e-01
C     4.466805746895781e+00   2.628103406282468e+00   2.726100618111372e+00 -2.38527058e+00   8.79783260e-01  -1.72143352e+00
C     6.166675902181563e+00   9.524460312091555e-01   2.647022970675182e+00  2.69516673e+00  -2.03860424e+00   2.91509210e-01
C     7.067027787135823e+00   3.570858240596873e+00   7.096044794776020e+00  1.58093105e+00  -5.05208670e-01   1.59333181e+00
C     1.802675930680211e+00   5.379342321231435e+00   7.097488231073237e+00 -1.19966468e+00  -4.02501190e-01   6.97647420e-01
C     7.091148797612269e+00   5.296408354523894e+00   1.775688377698024e+00  5.78039840e-01   1.51203783e+00  -1.83298980e-01
C     1.803828703576497e+00   3.547247472696091e+00   1.837509049708093e+00 -1.27220595e+00   8.28057560e-01  -3.48704369e+00
C     8.844789194122518e-01   4.501834205377260e+00   9.033733910731166e-01  3.54459410e-01  -2.17085283e+00  -1.07150512e+00
C     2.629156163672490e+00   6.217356609682699e+00   9.365141368436282e-01  2.21951237e+00   2.14892490e-01  -3.30665300e-01
C     8.566003967388738e-01   6.198167849325365e+00   2.672878009765550e+00 -7.03799700e-02   2.28407900e-01   4.08869730e-01
C     2.657912292202533e+00   4.460005403312132e+00   2.656791436123812e+00  4.55091120e-01  -8.68086550e-01   1.86256926e+00
C     3.497061795746212e+00   3.581932878701928e+00   4.567801291385800e-02  3.49365329e+00  -2.22199690e-01   7.75985600e-02
C     5.353941012756900e+00   5.376585888192077e+00   7.103016380260585e+00 -1.31375858e+00  -1.17804670e+00   1.71938765e+00
C     3.587476239913683e+00   5.329301727187230e+00   1.839075603885088e+00 -7.96724010e-01   6.60811350e-01  -1.34409896e+00
C     5.298509675334593e+00   3.511941074890170e+00   1.783285930878507e+00  9.94340500e-01  -2.61461070e-01  -2.05255660e-01
C     4.434841089647748e+00   4.460766999711638e+00   9.842525971381193e-01 -1.52945430e-01  -8.37023700e-01  -3.25244632e+00
C     6.255136098802343e+00   6.211470480332208e+00   8.929242941586213e-01  6.91540900e-02   1.07106063e+00  -1.27422780e+00
C     4.545660971788190e+00   6.195115990241921e+00   2.658673462096683e+00 -1.62328316e+00   9.62723480e-01  -1.56320300e-01
C     6.214519993636188e+00   4.383734658715901e+00   2.613646509610591e+00  9.12565330e-01   5.24482240e-01   2.12334157e+00
C     7.104470479191732e+00   7.264971411360260e-02   3.521803229348932e+00  1.01925630e-01  -2.15614108e+00   6.56322510e-01
C     1.811556696312056e+00   1.816307965991264e+00   3.516009154071370e+00 -4.80459730e-01  -1.17103747e+00   7.58399290e-01
C     1.364795817772140e-02   1.787148079056405e+00   5.356058398602719e+00 -5.52470100e-02   8.41913940e-01  -1.68628087e+00
C     1.791576484180213e+00   1.608614713638140e-02   5.307982785823362e+00 -1.30588672e+00   1.02118100e-02  -2.57504361e+00
C     9.430273001534294e-01   9.350507969630749e-01   4.363663885279879e+00 -2.00290732e+00  -5.46443300e-02   2.65664233e+00
C     2.669377395962106e+00   2.688227368897369e+00   4.435678888337740e+00 -2.50265140e-01   9.83530000e-04   8.37072960e-01
C     9.001072841319051e-01   2.711455348240064e+00   6.261955848379746e+00 -2.48711040e-01  -9.64016830e-01  -6.04458250e-01
C     2.639185934736632e+00   8.315572105959351e-01   6.185330251326325e+00  3.58712720e-01   2.29244510e+00   2.27790022e+00
C     3.598576326171718e+00   7.063509757696958e+00   3.473895730764537e+00 -7.73121650e-01  -4.78907800e-02   3.36003025e+00
C     5.306441964136250e+00   1.727172042716226e+00   3.559883831250759e+00 -3.90504770e-01   1.57365437e+00   1.87311363e+00
C     3.468020761637559e+00   1.726804821603677e+00   5.341743954720147e+00  3.51391429e+00   1.70445880e+00  -1.07386740e+00
C     5.361566786375183e+00   1.969672823775800e-03   5.342767922998558e+00 -1.34176647e+00  -7.10053770e-01  -5.72256410e-01
C     4.450508692860264e+00   8.301928910424786e-01   4.476652262824778e+00 -1.27795085e+00   1.02380125e+00  -1.77157582e+00
C     6.148368941650242e+00   2.635802467737964e+00   4.469347789908919e+00  1.78303990e+00   9.97960010e-01  -6.81753550e-01
C     4.417684840570152e+00   2.715712369294504e+00   6.220837319902808e+00 -1.16340386e+00  -1.77191867e+00   2.73662780e-01
C     6.206331375114853e+00   8.937190868917636e-01   6.185913710654974e+00  2.12512253e+00  -3.90360080e-01   4.13795680e-01
C     7.081298656387735e+00   3.488430962253687e+00   3.512620782261094e+00  6.77935550e-01   1.13892860e-01   1.65634919e+00
C     1.726651919433121e+00   5.251615411310453e+00   3.581144270296465e+00  5.76066090e-01   2.64829259e+00  -1.01739358e+00
C     7.104908500193576e+00   5.279643353027303e+00   5.316603667524219e+00  2.76989510e-01   1.69823975e+00   1.39912920e-01
C     1.805740442755920e+00   3.623291032105386e+00   5.424502414473198e+00 -5.92297820e-01  -2.86364413e+00  -2.72561593e+00
C     8.969596035115430e-01   4.369775067290519e+00   4.471674874222028e+00 -1.25475736e+00   1.21938180e+00  -5.41025680e-01
C     2.593119588695043e+00   6.233666672131610e+00   4.371788741250312e+00  2.92231820e+00  -1.54056595e+00   1.98783065e+00
C     8.917920646037079e-01   6.289134120340828e+00   6.135750283067896e+00  3.00495000e-03  -3.30889292e+00   1.63492378e+00
C     2.725620586331843e+00   4.466400424637988e+00   6.255104821742815e+00 -2.01828199e+00   1.52361469e+00  -3.09626450e-01
C     3.552330137037843e+00   3.602830788194014e+00   3.550647857740594e+00  5.13698890e-01  -1.60287391e+00   9.24051280e-01
C     5.426999461171153e+00   5.311381820267567e+00   3.568082543732215e+00 -2.92393697e+00   1.89982480e-01  -1.37418418e+00
C     3.561721998256066e+00   5.376221510448576e+00   5.336547697784927e+00 -3.29048540e-01   9.28901400e-02  -6.04673660e-01
C     5.246273644964201e+00   3.626647771435002e+00   5.349540614818215e+00  1.57926405e+00  -2.53659054e+00  -6.38877900e-01
C     4.420970851094699e+00   4.490220535584929e+00   4.433865600811606e+00  8.80627240e-01   1.73561980e-01   3.03609780e-01
C     6.225009608559617e+00   6.209614897691482e+00   4.433616806019906e+00  1.46505419e+00   4.57753460e-01   5.59225820e-01
C     4.439320604330193e+00   6.276968552616281e+00   6.244008716201448e+00  1.06097300e-01  -1.81987318e+00  -2.07843150e-01
C     6.189946887481110e+00   4.421162494168534e+00   6.252396228387691e+00  1.24631900e-02   1.94278274e+00  -1.50609666e+00
