64
Lattice="7.10842262195238 0 0 0 7.10842262195238 0 0 0 7.10842262195238 " PBC="1 1 1" Properties=species:S:1:pos:R:3:force:R:3 Energy="-513.81955373"
C     3.258991410168779e-02   7.082974893525757e+00   1.751095936633420e-02 -1.43814602e+00   7.67713460e-01  -1.55510947e+00
C     1.795840897994177e+00   1.784516256665576e+00   2.019637926371780e-02 -5.98490100e-01  -9.09176230e-01  -4.87813220e-01
C     1.314240716098700e-02   1.776909533619914e+00   1.750766461244983e+00 -6.49444460e-01  -4.14117180e-01   1.11053904e+00
C     1.719695048383379e+00   7.090301473635965e+00   1.792576923579751e+00  2.50222855e+00   9.17220530e-01  -3.39532310e-01
C     8.874236545668129e-01   8.790721109990274e-01   8.631707828507660e-01  2.63397550e-01   1.68041800e-02   1.30175148e+00
C     2.664840658477569e+00   2.634718788709545e+00   9.278725696329466e-01  3.54872160e-01   1.48396526e+00  -1.40627211e+00
C     9.097977701843940e-01   2.657963117424266e+00   2.654373861590750e+00 -4.49319180e-01   3.14143800e-01  -8.60188600e-02
C     2.693866480561815e+00   8.767853314421734e-01   2.677682948035540e+00 -1.07307241e+00  -1.74665060e-01  -8.91913400e-02
C     3.526356245121268e+00   7.076406782109103e+00   2.243119625121960e-02  7.41785380e-01   1.30112999e+00  -6.94567570e-01
C     5.326842497297615e+00   1.793840232447778e+00   7.076673845546937e+00  6.71910700e-02  -8.46058060e-01   7.40016570e-01
C     3.577299964259343e+00   1.772078365270457e+00   1.784837130862643e+00 -1.47316955e+00  -4.55740150e-01   2.29175700e-01
C     5.328661613730299e+00   2.173727203505520e-02   1.764467803676581e+00  5.02997960e-01  -3.15503590e-01   6.12686360e-01
C     4.432972569677855e+00   8.955726080899284e-01   9.163513093346767e-01  4.46831650e-01  -2.31518690e-01  -1.97296630e+00
C     6.199833423829459e+00   2.645859321892288e+00   9.048060225679515e-01  6.33974900e-01   1.07415697e+00  -1.12331276e+00
C     4.394414921533998e+00   2.680574441104677e+00   2.630952959658148e+00  2.52203755e+00  -4.08240250e-01   1.90609740e+00
C     6.215021066346672e+00   8.910559874414068e-01   2.676349834457385e+00  3.32480340e-01   3.43638500e-01  -7.44507800e-02
C     4.103336957395000e-03   3.569952769723538e+00   2.223038331220460e-02 -2.32711860e-01  -4.00095890e-01  -6.33896820e-01
C     1.754708223756225e+00   5.351227727842846e+00   1.486229001389600e-03  1.42051441e+00  -3.68311800e-01  -8.87361290e-01
C     7.101693573895229e+00   5.314684464501045e+00   1.753716030126926e+00 -8.29194800e-02   6.97153700e-01   1.25000231e+00
C     1.778350624137667e+00   3.590173815213746e+00   1.753729962635261e+00  3.27022610e-01  -1.39960827e+00   1.15932915e+00
C     9.096765715787229e-01   4.484857728307722e+00   8.757288065881628e-01 -9.12204920e-01  -1.34739468e+00   3.40695450e-01
C     2.656649765260995e+00   6.208752432774999e+00   8.844337809286148e-01 -6.59095010e-01  -1.69237320e-01   1.02327247e+00
C     8.576923215375321e-01   6.242463345123860e+00   2.690311771662231e+00  1.81605120e-01  -1.15260802e+00  -1.20835499e+00
C     2.671417442169819e+00   4.418878700149181e+00   2.672822208647984e+00 -4.71795730e-01   1.17145518e+00  -5.08214220e-01
C     3.577638040839151e+00   3.546829142024904e+00   1.373816406076920e-02 -1.08496491e+00   4.31963370e-01  -3.89996090e-01
C     5.333311659471399e+00   5.350132106664425e+00   3.282491855350500e-02 -2.27931790e-01  -8.14106380e-01  -1.96162736e+00
C     3.570615132543269e+00   5.304090213596650e+00   1.775506259910500e+00 -6.54301020e-01   1.15240733e+00   3.37311940e-01
C     5.317273423103476e+00   3.546358990952817e+00   1.763220915264806e+00  2.65831300e-01   6.95919400e-02   5.11469530e-01
C     4.452049088042018e+00   4.455049126724562e+00   8.798820446723502e-01  2.04160430e-01  -8.33908390e-01   4.76802650e-01
C     6.216187771751292e+00   6.211062385789593e+00   8.676077180817177e-01  3.10299680e-01   7.66828570e-01   1.32248977e+00
C     4.466476698012700e+00   6.249072401054805e+00   2.658093201558213e+00 -7.56334250e-01  -9.77152110e-01  -1.03324890e-01
C     6.229179409268509e+00   4.411867236413717e+00   2.648535145419134e+00 -5.19534190e-01   5.14353380e-01   5.40123130e-01
C     1.609922663400220e-02   9.125721875329800e-03   3.575798523233547e+00 -1.47561510e+00   2.21284870e-01  -7.74758600e-01
C     1.814024456308815e+00   1.786780715775403e+00   3.549395709096081e+00 -5.29891620e-01  -7.37660400e-02  -3.13655710e-01
C     2.745720646469060e-02   1.778603612898713e+00   5.325698183424247e+00 -5.30942950e-01  -4.71103900e-02   5.40078980e-01
C     1.743988295939908e+00   9.635537945636201e-03   5.265353362118542e+00  1.22988409e+00  -4.47866250e-01   2.33467922e+00
C     8.900856877537767e-01   9.053141326168289e-01   4.410771473066845e+00  4.96934360e-01   2.15411830e-01   5.69084510e-01
C     2.688471756467044e+00   2.675263525312596e+00   4.454050962020262e+00 -5.42707500e-02  -7.41074540e-01  -1.50380960e-01
C     8.969362168011231e-01   2.662464383879929e+00   6.249360789760498e+00  4.91558970e-01   3.29544150e-01  -5.19642690e-01
C     2.656253186363025e+00   8.840984766336294e-01   6.223279418493909e+00  1.00129370e-01  -1.86778600e-01  -4.55363690e-01
C     3.557633588986173e+00   7.085322094674881e+00   3.585920632707522e+00  1.33345290e-01   7.95801010e-01  -1.93807549e+00
C     5.319657801302902e+00   1.788065492079742e+00   3.604971987255610e+00  1.15866470e-01  -4.29439840e-01  -2.50839896e+00
C     3.570593736191183e+00   1.769378159854024e+00   5.329659636266147e+00 -1.36182769e+00  -2.20469680e-01  -1.10372610e-01
C     5.315590930553547e+00   7.106710129906616e+00   5.351474461191986e+00  1.07636178e+00   1.03758860e-01  -6.52732990e-01
C     4.425339118963141e+00   8.864539235529926e-01   4.429923838300363e+00  7.90692790e-01  -1.88632320e-01   1.58365493e+00
C     6.225725213464773e+00   2.664124413814378e+00   4.453428264198750e+00 -8.67871780e-01  -2.84928820e-01   6.66784440e-01
C     4.396703904701864e+00   2.674582609509827e+00   6.181514165727005e+00  2.24516948e+00  -1.40875390e-01   1.38950449e+00
C     6.254652797148410e+00   8.786896067778451e-01   6.210793047656522e+00 -1.14752989e+00   2.57470360e-01   4.03487150e-01
C     7.096985594509777e+00   3.496278376489262e+00   3.579261888902463e+00  6.40343680e-01   1.77861063e+00  -1.43339052e+00
C     1.737362535215806e+00   5.343484665251332e+00   3.530087740491410e+00  1.31832753e+00  -1.30372394e+00   8.67598110e-01
C     7.102264238063163e+00   5.319444975129659e+00   5.345947804773388e+00 -2.65156640e-01  -1.12169720e-01  -7.21226180e-01
C     1.828842176512884e+00   3.531872309990162e+00   5.362162187853835e+00 -1.62664536e+00   1.20712026e+00  -5.96540170e-01
C     8.657382740168837e-01   4.418252234863680e+00   4.440541120494047e+00  1.03210675e+00   2.09279310e-01   5.78950380e-01
C     2.671537574512097e+00   6.204226642261297e+00   4.424195089426679e+00 -1.45367446e+00   8.24282810e-01   1.98319100e-01
C     8.693391876634972e-01   6.207584803275437e+00   6.203411021849877e+00  9.27984230e-01   5.51733230e-01  -9.49247800e-02
C     2.687336825711535e+00   4.460668761311029e+00   6.242033356639577e+00 -6.57081790e-01  -4.30162360e-01  -5.20554350e-01
C     3.575313799895089e+00   3.539875114344210e+00   3.552258697390512e+00 -1.38488080e+00   1.17656254e+00  -2.72176000e-02
C     5.337573301000540e+00   5.371318049441074e+00   3.532096083134239e+00  5.50491310e-01  -1.33332822e+00   2.70087750e-01
C     3.540749805747601e+00   5.369708560391453e+00   5.309612249540544e+00  4.82942910e-01  -1.67792163e+00   1.06149639e+00
C     5.310527672205548e+00   3.563398306478314e+00   5.330342115921893e+00  4.62209430e-01   7.49186620e-01  -2.06079210e-01
C     4.425224602274733e+00   4.484128546315364e+00   4.416864031010221e+00  1.01036552e+00  -8.82502690e-01   2.89166040e-01
C     6.231766448596832e+00   6.221818424392820e+00   4.449063479457391e+00 -5.14533140e-01   1.55485730e-01   1.80159280e-01
C     4.447898053568843e+00   6.206566095229765e+00   6.222084208314582e+00 -5.78581210e-01   9.29407680e-01   3.84122490e-01
C     6.217805861992283e+00   4.458888883371207e+00   6.228012064105853e+00 -4.40352470e-01  -8.09693590e-01   3.84831320e-01
