32
Lattice="9.86 0 0 4.93 8.53901048131456 0 0 0 30 " PBC="1 1 1" Properties=species:S:1:pos:R:3:force:R:3 Energy="-256.33426265"
C     1.560705383000000e-01   4.228150812245360e-02  -1.437854999999999e-01 -3.25361660e-01   1.03695240e-01   7.54079800e-02
C     1.368893478600000e+00   7.483023502178223e-01  -1.209887999999992e-01  1.13882545e+00   8.28989990e-01  -2.81556160e-01
C     7.563216234200000e+00   8.534557556814891e+00  -6.045599999999851e-02 -7.84092050e-01   6.20360705e+00  -3.72462400e-01
C     3.861519571700000e+00   7.743655449554024e-01  -8.240070000000088e-02  2.39842700e-02   6.76894100e-02   4.00141750e-01
C     5.095272087500000e+00   1.025921975822744e-01   2.421480000000000e-02  2.26425620e-01  -2.35780704e+00  -7.49215300e-01
C     6.346061598700000e+00   7.918640267914375e-01  -4.265369999999891e-02 -1.37136700e+00  -4.54314830e-01   5.25711120e-01
C     7.540384664699999e+00   8.974371929322800e-02  -5.748660000000072e-02  8.27603010e-01  -1.97119199e+00  -4.77345290e-01
C     8.772026302400000e+00   7.585870760003536e-01  -2.075640000000014e-01  2.95070170e-01  -9.79054240e-01   5.36112710e-01
C     1.373232519500000e+00   2.202772755071689e+00  -1.850732999999991e-01  1.63671382e+00  -8.54181540e-01  -6.51325730e-01
C     2.677416001300000e+00   2.925516651461404e+00  -2.350643999999988e-01 -3.09072115e+00   6.87195820e-01   1.05346056e+00
C     3.884023937099999e+00   2.225662768124796e+00  -1.430973000000009e-01 -8.70949800e-02  -1.62699804e+00   3.30575010e-01
C     5.120258757200000e+00   2.896926763522792e+00  -3.370769999999723e-02 -5.08977160e-01   1.77733845e+00  -1.08564690e-01
C     6.349524036300000e+00   2.180726396254006e+00  -1.281780000000055e-02 -1.29652900e-02   1.84587057e+00  -6.03173720e-01
C     7.582039861600000e+00   2.904962997065730e+00  -1.150467000000006e-01 -1.49378848e+00  -3.07891640e-01   1.91905300e-02
C     8.754246060200000e+00   2.139241065468707e+00  -2.622482999999995e-01  1.69750650e+00   2.84483040e+00   6.42192370e-01
C     9.997943026900000e+00   2.901452524467297e+00  -2.493491999999975e-01  6.61920500e-01  -1.66686603e+00   2.25380580e-01
C     2.592346090500000e+00   4.371807111225954e+00  -1.281414000000005e-01 -1.06147110e-01  -1.55889901e+00  -9.53541060e-01
C     3.813219277100000e+00   5.074612418144870e+00  -5.044559999999976e-02  9.97662900e-01  -1.27084564e+00  -9.78831700e-02
C     5.062268596900000e+00   4.364108168596977e+00  -1.923750000000268e-02  9.91182140e-01  -1.14914041e+00  -2.78950070e-01
C     6.321971597399999e+00   5.075190765324680e+00  -4.578629999999961e-02 -1.00833057e+00  -2.18203175e+00   4.02414430e-01
C     7.545703641699999e+00   4.331459945147535e+00  -6.990959999999902e-02  5.66839950e-01   4.43121690e-01  -3.03582300e-02
C     8.771209746499999e+00   5.054848536828490e+00  -6.305970000000016e-02  1.16525635e+00  -1.21973918e+00  -3.85528540e-01
C     1.004919787050000e+01   4.289992802454559e+00  -1.665968999999983e-01 -4.10886868e+00   2.15196376e+00  -1.81835690e-01
C     1.117914065810000e+01   5.061543804165649e+00  -2.094032999999982e-01  4.49349957e+00  -6.79863140e-01   8.68121210e-01
C     3.843993914700000e+00   6.459710962568063e+00  -5.747940000000185e-02  2.48805820e-01   1.68383632e+00   9.38021200e-02
C     5.095515136500000e+00   7.159410289814983e+00  -6.139260000000135e-02 -1.48967281e+00   3.57437470e-01  -8.09770800e-02
C     6.295158313400000e+00   6.457080008049070e+00  -3.172860000000099e-02  1.73164584e+00   1.57878316e+00  -7.04461600e-02
C     7.530272495199999e+00   7.224469949953257e+00  -3.208950000000144e-02  1.50776950e+00  -5.81418461e+00   3.38915550e-01
C     8.819615543099999e+00   6.469024802859018e+00  -5.289899999997516e-03 -1.42361198e+00   1.73702880e-01  -3.36662310e-01
C     1.005807433550000e+01   7.141177282297459e+00  -2.085930000000147e-02 -3.86586590e-01   2.95641430e+00   8.35760700e-02
C     1.131569184740000e+01   6.473796487305347e+00  -1.142943000000010e-01 -4.34938412e+00  -8.44738680e-01   3.51431700e-01
C     1.247182299220000e+01   7.180881887837257e+00  -4.731419999999886e-02  2.33625822e+00   1.23327124e+00  -2.86608080e-01
