32
Lattice="9.86 0 0 4.93 8.53901048131456 0 0 0 30 " PBC="1 1 1" Properties=species:S:1:pos:R:3:force:R:3 Energy="-252.65884007"
C     9.762051105100001e+00   1.020437967122174e+00   3.831811800000000e+00 -9.62660590e-01   2.40034871e+00  -1.42627510e+00
C     1.105934180600000e+00   1.811852841962363e+00   3.549501900000000e+00 -2.16811630e-01  -6.58348050e-01   5.17384040e-01
C     2.358675577400000e+00   1.043288444556758e+00   3.616263600000000e+00 -2.13722275e+00   3.42343356e+00  -1.75345915e+00
C     3.499962787999999e+00   1.791353922623866e+00   3.158196300000000e+00  1.61553722e+00  -7.40199130e-01   1.38853368e+00
C     4.725129067899999e+00   1.065654076976289e+00   3.360560700000000e+00  1.17492596e+00  -1.20683626e+00  -1.85848744e+00
C     5.985676528100000e+00   1.702148160990878e+00   3.107161800000000e+00 -9.11900060e-01   3.47592329e+00   1.64479131e+00
C     7.229280761500000e+00   1.075802007810930e+00   3.354909000000000e+00 -6.64997920e-01  -1.09471990e-01  -3.57043950e-01
C     8.457046728999998e+00   1.752779967461723e+00   3.483163200000000e+00  2.21475927e+00  -8.02348800e-01   1.72325618e+00
C     1.090992361250000e+01   3.254023314560418e+00   3.209832000000000e+00  1.86819233e+00  -8.84631390e-01  -1.70360300e-02
C     2.326776604000000e+00   4.007411414030024e+00   2.832691200000000e+00 -6.19924440e-01  -2.21630018e+00   2.45307755e+00
C     3.560671646100000e+00   3.209846231501510e+00   2.869457100000000e+00 -8.48986840e-01   2.30320463e+00   1.45117903e+00
C     4.799146756800000e+00   4.026884798209874e+00   3.134586600000000e+00 -1.24263437e+00  -3.07979797e+00  -1.71470496e+00
C     5.967342449700000e+00   3.216041625165169e+00   3.145769400000000e+00  1.68547802e+00  -9.49040440e-01   2.13280540e-01
C     7.240064199799999e+00   3.882173504484475e+00   3.319035000000000e+00 -2.56248320e-01  -1.20555311e+00   5.74614430e-01
C     8.475809273699999e+00   3.151813237697124e+00   3.537240300000000e+00 -3.21925310e-01   2.07470605e+00  -1.71959111e+00
C     9.694567243800000e+00   3.959061999670377e+00   3.420736500000000e+00  5.93685570e-01  -1.84101350e+00  -1.07070363e+00
C     1.220722732860000e+01   5.430955145337322e+00   3.095359800000000e+00  1.61495207e+00  -2.56223862e+00  -1.53546004e+00
C     3.611242402900000e+00   6.099688690369675e+00   3.306386100000000e+00 -3.83235300e+00   3.54191478e+00   7.46421200e-01
C     4.801909775300000e+00   5.447442010601791e+00   3.310090200000000e+00  2.07649738e+00  -2.05412716e+00   1.40314842e+00
C     6.066746434100000e+00   6.014681304019389e+00   3.764214900000000e+00 -9.46793670e-01   2.14957230e-01  -1.05751190e+00
C     7.243230393700000e+00   5.274855287944643e+00   3.522066300000000e+00  1.49354298e+00   1.42383289e+00   1.51941644e+00
C     8.484491693900001e+00   6.027525512803194e+00   3.699761100000000e+00  8.20248230e-01  -8.13017990e-01  -2.09433548e+00
C     9.758465170999999e+00   5.359972742140016e+00   3.264448200000000e+00 -4.32077779e+00  -7.44253120e-01   2.33030435e+00
C     1.094682939530000e+01   6.032182689118986e+00   3.143526300000000e+00  1.08303804e+00   1.11641432e+00   1.04814591e+00
C     1.335171544030000e+01   7.597147633413739e+00   3.632113800000000e+00  5.08312149e+00  -4.92818248e+00   5.22517080e-01
C     4.822902701299999e+00   8.154823576654154e+00   4.043937900000000e+00 -9.91484740e-01   1.88407500e-01  -1.62541135e+00
C     6.115591000699999e+00   7.390052549264185e+00   4.118171999999999e+00 -3.06019279e+00   2.32447793e+00  -1.87795015e+00
C     7.257536119799999e+00   8.210404935159627e+00   3.842862900000000e+00  6.91125060e-01  -2.25386523e+00   1.61590227e+00
C     8.461001920099999e+00   7.446686340811318e+00   3.804167400000000e+00  1.01577832e+00   1.84149590e-01  -1.54668860e+00
C     9.666647076200000e+00   8.139187196833493e+00   3.486209700000000e+00  1.17358043e+00   3.01955340e-01   6.95217210e-01
C     1.093198521460000e+01   7.385379063438376e+00   3.368112000000000e+00 -5.33733280e-01   4.83419526e+00  -4.08027490e-01
C     1.217006937630000e+01   8.213197789317320e+00   3.410239800000000e+00 -2.33581485e+00  -7.58695660e-01   2.15496730e-01
