32
Lattice="9.86 0 0 4.93 8.53901048131456 0 0 0 30 " PBC="1 1 1" Properties=species:S:1:pos:R:3:force:R:3 Energy="-256.57471441"
C     4.954902366700000e+00   7.735671389365119e+00  -2.594273999999999e-01  1.32444608e+00  -8.71933850e-01   3.39133230e-01
C     6.201603774000000e+00   8.392003729477368e+00  -1.088276999999991e-01  3.10716830e-01   2.01077396e+00  -1.50929149e+00
C     7.454064900299999e+00   7.701261909614073e+00  -3.266193000000008e-01 -1.35219118e+00   1.06941200e-01   1.16980094e+00
C     8.674911612799999e+00   8.402571950407834e+00  -2.490071999999977e-01  1.04508737e+00   8.70871500e-01   2.87214960e-01
C     9.927665038800001e+00   7.731037182987519e+00  -2.018127000000014e-01 -3.17632930e-01  -2.37981902e+00  -4.94118950e-01
C     1.118094355910000e+01   8.430364977888454e+00  -1.637145000000011e-01 -2.44819828e+00  -7.25031250e-01  -4.20152570e-01
C     1.237887425120000e+01   7.703640792543696e+00  -2.154138000000003e-01  3.02881950e-01   8.32446300e-02   8.32037360e-01
C     1.359580886080000e+01   8.434923528633201e+00  -2.129327999999973e-01 -3.72227700e-02  -1.53647274e+00   8.20555900e-02
C     1.253560220500000e+00   1.325744480307447e+00  -1.731180000000165e-02  1.26827325e+00  -2.08368408e+00   3.42441780e-01
C     2.534198367400000e+00   2.012607027709678e+00   5.931540000000000e-02 -1.23687279e+00  -9.81220070e-01  -1.15312498e+00
C     3.768477308600000e+00   1.296051864555448e+00  -1.509131999999980e-01 -1.65269656e+00   4.33824520e-01   3.31942320e-01
C     4.957020294699999e+00   2.045857166007855e+00  -2.468237999999978e-01  9.65278150e-01  -1.04213396e+00   4.62560530e-01
C     6.170182172500000e+00   1.292506211233838e+00  -1.900412999999972e-01  1.49556773e+00   7.93974730e-01  -6.68205460e-01
C     7.431717801900000e+00   1.952954269007342e+00  -2.161926000000030e-01 -1.11818059e+00   2.39518973e+00   2.34130880e-01
C     8.643799023699998e+00   1.275737814793842e+00  -1.437245999999988e-01  8.59727040e-01   9.35900600e-01  -1.36593890e-01
C     9.872092599799998e+00   1.998925483558203e+00  -5.008769999999885e-02  1.03677120e+00   3.79422000e-01   9.13599900e-02
C     2.500195467200000e+00   3.417303113525101e+00   6.711090000000000e-02  9.88488320e-01   7.10128980e-01   2.27781950e-01
C     3.734148239600000e+00   4.122050020646959e+00  -5.644559999999998e-02  1.34594204e+00   2.09981294e+00   1.38562240e-01
C     4.987287783199999e+00   3.469736053476493e+00  -2.662295999999991e-01 -7.96124200e-01  -1.04942281e+00   4.68643450e-01
C     6.230507427299999e+00   4.158133914963028e+00  -3.538569000000003e-01 -5.20602220e-01  -9.42744780e-01   2.99183400e-01
C     7.457682830099999e+00   3.404982943814452e+00  -2.651919000000014e-01 -9.03178030e-01  -3.95250340e-01  -1.08760850e-01
C     8.666238608900001e+00   4.111990127010365e+00  -1.858865999999999e-01  8.87902380e-01   3.74805360e-01  -9.03627100e-02
C     9.930994514299998e+00   3.417477736289417e+00  -4.020990000000069e-02 -1.44587041e+00   8.16393790e-01   1.94105880e-01
C     1.114595308130000e+01   4.151220048957581e+00   8.842050000000000e-02 -1.03657100e-02  -1.66183260e-01  -8.56056230e-01
C     3.808011718099999e+00   5.585701569568920e+00   1.207320000000000e-02 -2.48540146e+00  -6.25945300e-01  -2.01405947e+00
C     4.988304349199999e+00   6.306030206844367e+00  -3.327882000000031e-01 -1.34327559e+00  -6.96018610e-01   1.38822148e+00
C     6.180272304900000e+00   5.561811126047977e+00  -3.972329999999999e-01  1.43463222e+00   1.06865344e+00   1.33568930e-01
C     7.404800199100000e+00   6.287926906896034e+00  -3.699593999999991e-01  1.51105086e+00  -1.03634587e+00  -6.40450000e-02
C     8.640274665300000e+00   5.533629317420204e+00  -2.630865000000000e-01  9.95042950e-01   1.12788880e+00  -2.48570510e-01
C     9.910110689200000e+00   6.249711504783947e+00  -2.261751000000025e-01 -1.37451490e-01   1.49526205e+00   5.76384520e-01
C     1.118059643780000e+01   5.588260454839462e+00  -6.038249999999934e-02 -2.35635953e+00  -1.42414387e+00   3.01615940e-01
C     1.237116338610000e+01   6.290606619164868e+00  -4.670429999999826e-02  2.38981534e+00   2.53261590e-01  -1.37403240e-01
