26
Lattice="8.88768389401873 1.33226762955019e-15 0 4.44384194700937 7.69696003302603 0 0 0 30 " PBC="1 1 1" Properties=species:S:1:pos:R:3:force:R:3 Energy="-208.18073152"
C     6.053868550333674e-01   7.798950138269520e-01   3.572670600000000e+00 -1.31638334e+00  -3.93079095e+00   2.55911870e-01
C     2.974963541206554e+00   1.841421487273203e-01   3.786309300000000e+00  8.39819300e-02  -1.60314408e+00  -5.84411720e-01
C     4.350363019343589e+00   6.161412655534985e-01   3.787548300000000e+00  6.75451280e-01  -2.11904756e+00   6.09002900e-02
C     9.832951068021329e+00   7.273159330149777e+00   3.806682600000000e+00 -6.76198850e-01   1.32273903e+00  -8.63031480e-01
C     1.120182880813684e+01   7.672124249071198e+00   3.599787600000000e+00 -1.77965629e+00  -2.73321700e-02   7.41519910e-01
C     1.216641056209226e+01   6.662743987101795e+00   3.519182400000000e+00  1.70726975e+00  -9.68719600e-01   3.52565990e-01
C     4.646252639908925e+00   7.034616145504820e+00   3.467630700000000e+00  4.50275710e-01   2.55856384e+00   6.74344770e-01
C     5.662957460358969e+00   6.096005736470452e+00   3.553888800000000e+00  7.05204440e-01  -2.14652167e+00  -4.32332730e-01
C     7.039904150902029e+00   6.460327407992848e+00   3.640231800000000e+00  1.50679522e+00   1.61328059e+00   1.09171298e+00
C     8.124271397631976e+00   5.525902528853194e+00   3.749817900000000e+00 -1.66770323e+00  -1.79860836e+00  -9.51366310e-01
C     9.467189412923144e+00   5.895650326287939e+00   3.810386700000000e+00  1.51564160e+00   3.30953830e-01  -4.17590700e-02
C     1.051484665900082e+01   4.893379284480643e+00   3.764213400000000e+00 -6.56220460e-01  -9.31500980e-01   3.16283520e-01
C     1.188371124531474e+01   5.247021423961415e+00   3.657423000000000e+00 -1.20745234e+00   1.15124323e+00  -2.49095150e-01
C     3.987017839860417e+00   4.229590064831030e+00   3.635535600000000e+00 -3.44567230e-01   1.55920824e+00  -6.51203540e-01
C     5.341407722050205e+00   4.662088714363156e+00   3.527653500000000e+00  3.00151210e-01   1.73289265e+00   8.47252650e-01
C     6.404698181966369e+00   3.764606318522690e+00   3.598469100000000e+00  6.50372680e-01  -1.96162174e+00  -1.30963693e+00
C     7.807058271369605e+00   4.103570894013453e+00   3.597867900000000e+00 -1.67682484e+00   1.96649220e+00   1.14706667e+00
C     8.789029712086181e+00   3.130461709519821e+00   3.692124600000000e+00  9.06715050e-01  -1.55447469e+00   7.20631700e-02
C     1.015868485788081e+01   3.482110798170424e+00   3.808593900000000e+00 -4.00243650e-01   1.64389102e+00  -1.22438326e+00
C     2.253024757037807e+00   2.481758223650607e+00   3.673758600000000e+00  3.07881840e-01   6.79612800e-01   1.35230803e+00
C     3.589779341320414e+00   2.875331652979815e+00   3.646299300000000e+00  2.40290195e+00   8.89758120e-01   1.97505340e-01
C     4.709005284136094e+00   1.989901849880726e+00   3.672279600000000e+00 -1.92045257e+00  -1.74754034e+00  -4.36519110e-01
C     6.042619271990199e+00   2.366986004768065e+00   3.509499600000000e+00  1.90216768e+00   1.29417140e-01   1.69864539e+00
C     7.086981453703237e+00   1.363411944597293e+00   3.608839200000000e+00  3.58173960e-01  -1.57421740e-01  -9.48801440e-01
C     8.492625053485350e+00   1.708746139360882e+00   3.615471300000000e+00 -2.66101859e+00   2.69535055e+00  -1.18258820e-01
C     1.931486261693274e+00   1.115747708377586e+00   3.756638100000000e+00  8.33737100e-01   6.73320630e-01  -9.97281010e-01
