32
Lattice="9.86 0 0 4.93 8.53901048131456 0 0 0 30 " PBC="1 1 1" Properties=species:S:1:pos:R:3:force:R:3 Energy="-255.28985872"
C     9.789993014000000e+00   2.291233402650192e-01   4.199358000000000e+00  2.42141655e+00   3.15745300e-01  -7.33822950e-01
C     1.220555004400000e+00   9.437947977073616e-01   4.260553800000000e+00 -8.62706920e-01  -2.56036585e+00  -2.80803030e-01
C     2.455928356300000e+00   2.160372213143144e-01   3.955017300000000e+00 -2.03309812e+00  -7.72195020e-01   1.08590800e-01
C     3.628803408000000e+00   9.363463896458671e-01   3.978768900000000e+00  1.47850793e+00   1.06516695e+00   7.40002740e-01
C     4.869689781699999e+00   2.163427471092888e-01   3.906230100000000e+00  3.16171680e-01   4.71629770e-01  -3.26531760e-01
C     6.103515113600000e+00   9.323180260618223e-01   3.952270500000000e+00  7.06335390e-01  -1.30322693e+00   1.02613554e+00
C     7.333633479900000e+00   2.090786108939528e-01   4.149613500000000e+00  1.38222600e-02   4.79924990e-01  -1.49613014e+00
C     8.579025577800000e+00   9.480894076381727e-01   4.200582900000000e+00 -1.08034080e+00  -2.08186049e+00   8.44613790e-01
C     1.107075529830000e+01   2.286464109126797e+00   4.596108000000000e+00 -2.96316610e-01   3.05815126e+00  -6.26783170e-01
C     2.428358070800000e+00   3.068445255968892e+00   4.480206600000000e+00 -4.33408160e-01   5.28612490e-01   7.75720400e-02
C     3.619600182600000e+00   2.385127166426805e+00   4.245669600000000e+00  2.07213513e+00  -9.09157770e-01  -4.90670430e-01
C     4.902378442500000e+00   3.093670944558594e+00   4.158603600000000e+00 -5.33482500e-02  -9.85506600e-01  -1.61921069e+00
C     6.151021974000000e+00   2.334372654375362e+00   3.965070600000000e+00 -2.99034479e+00   7.63117480e-01   9.30519200e-01
C     7.318132918999999e+00   3.051465775189832e+00   4.059461700000000e+00  2.55199912e+00   1.66708232e+00  -9.70322680e-01
C     8.566243369599999e+00   2.319318549679331e+00   4.315599900000000e+00  5.16525940e-01   3.17332197e+00   2.50630020e-01
C     9.814524053100001e+00   3.045864952825895e+00   4.623945600000000e+00 -1.23570200e+00  -9.62353200e-01  -2.00192845e+00
C     1.229709930590000e+01   4.534411218291354e+00   4.432034100000000e+00 -1.79880995e+00  -1.85289642e+00   5.37556000e-02
C     3.606807720000000e+00   5.203885949433372e+00   4.133596200000000e+00  3.60924216e+00   1.21133892e+00   1.53574890e-01
C     4.921499546100000e+00   4.499042295322775e+00   3.988866900000000e+00 -2.04473174e+00   5.76226890e-01   3.47175510e-01
C     6.117772870800000e+00   5.234611529283136e+00   3.705992100000000e+00 -1.52276890e-01   1.38001610e-01  -3.02069500e-02
C     7.336805589799999e+00   4.511785487612603e+00   3.729558900000000e+00  1.67102426e+00  -1.78846619e+00   2.52148138e+00
C     8.645546905899998e+00   5.160674372289437e+00   3.948048900000000e+00 -2.91942763e+00   6.14996410e-01  -5.51151870e-01
C     9.772949609599999e+00   4.466270341611478e+00   4.381685400000000e+00  2.05379128e+00  -3.50868680e-01   3.72798000e-01
C     1.101982129910000e+01   5.213700090348349e+00   4.416170400000000e+00  4.09995540e-01  -5.40269360e-01  -2.03464230e-01
C     1.354249288280000e+01   6.662299925497216e+00   4.110847800000000e+00 -4.22813780e-01  -1.78637885e+00  -8.54134240e-01
C     4.915311065000000e+00   7.371857369563086e+00   3.932339400000000e+00 -8.56996370e-01   2.10512050e-01   4.15377040e-01
C     6.135190117100001e+00   6.695460233405144e+00   3.648726600000000e+00 -9.80821010e-01  -2.52761425e+00   1.10214609e+00
C     7.379006932099999e+00   7.289075505514202e+00   3.715425000000000e+00  8.41243920e-01   2.95043403e+00   4.09701360e-01
C     8.629063648100001e+00   6.599861058455464e+00   3.819632700000000e+00 -6.41273060e-01  -8.16871210e-01  -3.87998920e-01
C     9.820327994199999e+00   7.328938424308300e+00   3.880072800000000e+00  1.12502597e+00  -9.29257000e-03   1.48736607e+00
C     1.104933553290000e+01   6.597337097737786e+00   4.199634600000000e+00 -4.19701010e-01   1.34181588e+00  -1.20327335e+00
C     1.229682933910000e+01   7.322289523798049e+00   4.118606700000000e+00 -5.65120020e-01   6.81245090e-01   9.34992790e-01
