32
Lattice="9.86 0 0 4.93 8.53901048131456 0 0 0 30 " PBC="1 1 1" Properties=species:S:1:pos:R:3:force:R:3 Energy="-256.48037737"
C     1.205522694900000e+00   7.639891102003160e-01   3.629373300000000e+00  7.50413800e-01  -1.07381107e+00   1.04636000e-02
C     2.468690450100000e+00   1.447802120789825e+00   3.729798000000000e+00  3.20082140e-01   3.82998670e-01  -1.72434510e-01
C     3.740386365800000e+00   7.336652907936352e-01   3.518690700000000e+00 -2.66937177e+00   9.88538310e-01   4.86099200e-01
C     4.909783154599999e+00   1.517964181250317e+00   3.508873200000000e+00  3.18306200e-02  -7.20893370e-01   9.43487000e-02
C     6.109195755400000e+00   8.092941111535280e-01   3.385218000000000e+00  2.64702160e+00  -2.18249444e+00   3.25767110e-01
C     7.413213145499999e+00   1.451799231595513e+00   3.422289900000000e+00 -2.92507343e+00   1.73603020e+00   6.93769870e-01
C     8.613767978000000e+00   7.782158701709392e-01   3.501446700000000e+00 -6.26844350e-01  -2.69382748e+00   5.83360960e-01
C     9.798258257600001e+00   1.443191140520730e+00   3.696781500000000e+00  2.98169798e+00   1.47902644e+00  -5.16884140e-01
C     2.476534967500000e+00   2.887670390772367e+00   3.931922100000000e+00 -1.37360234e+00  -1.10361072e+00  -5.73554150e-01
C     3.683194372500000e+00   3.620499029319172e+00   3.858977700000000e+00 -1.94594790e-01   4.02342230e-01  -5.85586800e-01
C     4.888114276300000e+00   2.916582797136809e+00   3.659185800000000e+00  1.74219884e+00   8.44684350e-01   3.97405000e-02
C     6.177100835899999e+00   3.625486665340540e+00   3.570402600000000e+00 -1.14728975e+00  -1.36879268e+00  -2.57210230e-01
C     7.397325826100000e+00   2.890281620177151e+00   3.548167800000000e+00 -3.29488000e-02  -8.96099460e-01  -8.12308890e-01
C     8.627509564200000e+00   3.574721137965577e+00   3.548436000000000e+00 -2.79915720e-01   1.57164213e+00   8.01409600e-02
C     9.859400561299999e+00   2.880246404280846e+00   3.725110800000000e+00 -1.38554319e+00  -8.62619380e-01   1.25368370e-01
C     1.105185436850000e+01   3.571810103902841e+00   3.911426400000000e+00  2.09592252e+00   2.40883100e-01  -2.33611980e-01
C     3.641839511200000e+00   5.049687644284483e+00   3.734745600000000e+00  1.22673558e+00  -1.67403170e-01   1.32465790e-01
C     4.905071257800000e+00   5.749451355670423e+00   3.569227500000000e+00  2.54889640e-01  -1.02761915e+00  -2.02068390e-01
C     6.181569437199999e+00   5.010807992547157e+00   3.452279100000000e+00 -1.48340370e+00   2.14438136e+00   3.85373010e-01
C     7.402635091000001e+00   5.768590522980086e+00   3.317824800000000e+00 -4.20768260e-01  -2.87529873e+00   6.10805030e-01
C     8.599525257300000e+00   5.014794258809536e+00   3.406431000000000e+00  1.96247149e+00  -5.37979660e-01   5.95917530e-01
C     9.884608144300000e+00   5.688899609944751e+00   3.498671700000000e+00 -2.13124527e+00   1.96589590e-01   7.82919200e-02
C     1.107372818690000e+01   4.995145312574216e+00   3.822024300000000e+00 -1.41982053e+00  -1.85132380e-01  -1.22625491e+00
C     1.224163596780000e+01   5.726163766289367e+00   3.688522500000000e+00  2.90834162e+00   4.76242870e-01   5.15692740e-01
C     4.918737858700000e+00   7.167379406735549e+00   3.520935600000000e+00  3.43186380e-01   2.31910000e-03  -6.64010000e-03
C     6.174890519699999e+00   7.868817447296406e+00   3.424016400000000e+00 -5.92016560e-01   3.95659150e-01   9.77472930e-01
C     7.417944022800000e+00   7.139180263916501e+00   3.379327200000000e+00 -1.15116482e+00   2.65366600e+00  -3.61241460e-01
C     8.637561390500000e+00   7.863909394852711e+00   3.390893400000000e+00  5.38671790e-01  -7.83119900e-01  -3.00007550e-01
C     9.852122303700000e+00   7.102960940894218e+00   3.351906900000000e+00  9.70675350e-01   1.46233207e+00   7.68069050e-01
C     1.106782904750000e+01   7.873900037114312e+00   3.426004200000000e+00 -9.55004700e-02   3.84121860e-01  -3.89894920e-01
C     1.230967539080000e+01   7.142818053161190e+00   3.531253200000000e+00 -1.01343499e+00   1.16562356e+00   3.08325820e-01
C     1.353817681570000e+01   7.870940416081943e+00   3.592323300000000e+00  1.68399390e-01  -4.83793900e-02  -1.17377506e+00
