32
Lattice="9.86 0 0 4.93 8.53901048131456 0 0 0 30 " PBC="1 1 1" Properties=species:S:1:pos:R:3:force:R:3 Energy="-254.25112785"
C     5.007451236700000e+00   8.377168479619939e+00  -5.967908999999985e-01 -1.83563514e+00  -1.07888035e+00   4.46464330e-01
C     1.283477679000000e+00   5.690594688915136e-01  -6.661797000000007e-01  5.73238640e-01  -1.92535377e+00   7.95698760e-01
C     7.459692791099999e+00   8.336878524911738e+00  -6.603263999999989e-01 -1.26377310e+00   1.97183890e+00   8.95208640e-01
C     3.727716758800000e+00   4.889985605320816e-01  -3.552770999999986e-01  8.14977210e-01   1.06439443e+00  -1.18420080e+00
C     9.908194250299999e+00   8.341092697363825e+00  -3.766829999999999e-01 -9.31935220e-01   1.53308820e+00  -5.17887500e-02
C     6.169350580100000e+00   5.262488836797192e-01  -4.867622999999988e-01  1.57745141e+00   8.51090800e-01   1.32357864e+00
C     1.235644043410000e+01   8.256428750015045e+00  -3.149385000000002e-01  9.13734970e-01   8.66372743e+00  -2.30777517e+00
C     8.699946941600000e+00   5.416405354600240e-01  -5.326586999999989e-01 -1.47971375e+00  -8.17093300e-01   2.84942750e-01
C     1.251699194800000e+00   1.949453189320437e+00  -3.722253000000002e-01  6.32431300e-01   4.58480500e-02  -8.77736550e-01
C     2.471673100100000e+00   2.604958782438012e+00  -2.555580000000006e-01  1.16330669e+00   3.14949262e+00   2.55040031e+00
C     3.741861964100000e+00   1.924913524832698e+00  -2.190332999999995e-01 -2.17683359e+00   5.33532420e-01  -8.74031710e-01
C     4.884829417300000e+00   2.753263804114023e+00  -2.977154999999989e-01  3.20610613e+00  -2.72026325e+00  -6.16643260e-01
C     6.148981299099999e+00   2.042397158961359e+00  -5.252148000000005e-01  8.61015200e-02  -2.28128654e+00   2.21369280e-01
C     7.407543349699999e+00   2.723009919203173e+00  -6.379782000000027e-01  4.22401260e-01  -2.12526553e+00   8.20550090e-01
C     8.659133394300000e+00   1.975761453658793e+00  -5.864489999999982e-01  5.63164490e-01   6.71855750e-01   3.91427020e-01
C     9.935885370099999e+00   2.718372724171905e+00  -3.756366000000000e-01 -2.15950692e+00  -1.00693051e+00  -3.58943950e-01
C     2.479774371900000e+00   4.110020348072839e+00   1.437330000000000e-01  9.87940530e-01  -1.99714179e+00  -1.63983239e+00
C     3.714049960699999e+00   4.779492432121607e+00   2.852700000000000e-02  1.19774450e+00   1.70091226e+00  -7.29516980e-01
C     4.956856224299999e+00   4.147553910198098e+00  -2.718018000000022e-01  6.47153800e-02  -6.02587220e-01   4.41527000e-01
C     6.235936639100000e+00   4.804897696101704e+00  -4.720461000000000e-01 -1.88960010e+00   1.48571582e+00   1.86107240e-01
C     7.462890191900000e+00   4.107722329572462e+00  -5.618349000000009e-01  1.81687890e-01   5.54877030e-01  -1.59066800e-02
C     8.729477543000000e+00   4.781361365345365e+00  -4.440588000000005e-01 -1.47214694e+00   2.51612786e+00   2.56392900e-02
C     9.944336622600000e+00   4.133414589694791e+00  -2.142380999999993e-01  1.02065176e+00   1.19098140e-01   5.47070660e-01
C     1.119171043260000e+01   4.926720940746405e+00   1.455624000000000e-01 -3.77994470e+00  -3.98141792e+00  -1.28901238e+00
C     3.731153708299999e+00   6.203279696007794e+00  -1.143086999999987e-01 -9.54162500e-02   6.45537920e-01   2.33535180e-01
C     4.933424575200000e+00   6.898709091064190e+00  -4.274487000000029e-01  2.64354100e-01   2.17117820e+00  -2.25904390e-01
C     6.156355198700000e+00   6.255859165379023e+00  -5.351378999999987e-01  1.89173773e+00  -2.22722247e+00  -3.99913870e-01
C     7.407401020599999e+00   6.936768485454808e+00  -6.907272000000013e-01  7.01507830e-01  -4.12566880e-01   7.54877050e-01
C     8.663035538599999e+00   6.252651486092211e+00  -4.905980999999997e-01 -5.42083610e-01  -1.87334891e+00   1.82700210e-01
C     9.869572728900000e+00   6.949826084110510e+00  -2.811750000000011e-01 -2.18041250e-01  -4.28310760e-01   3.49652910e-01
C     1.103971877910000e+01   6.294912842149931e+00   9.753570000000000e-02  4.16124826e+00   4.36732880e-01  -1.08895902e+00
C     1.239613679410000e+01   6.977675554450401e+00  -6.637890000000013e-02 -2.57987105e+00  -4.63737950e+00   1.20941653e+00
