32
Lattice="9.984 0 0 4.992 8.64639763138383 0 0 0 30 " PBC="1 1 1" Properties=species:S:1:pos:R:3:force:R:3 Energy="-257.76104327"
C    -7.462950240895371e-04  -4.267649156355138e-04   2.999492063222998e+00  2.35598000e-02   9.09041000e-03   5.67321000e-03
C     1.246984960836528e+00   7.201165006646471e-01   3.000562155960568e+00  5.28005300e-02  -7.08501000e-03  -2.34966000e-03
C     2.496380297408825e+00   1.210583746162797e-05   3.001116537391270e+00 -2.46697300e-02   1.57802600e-02  -2.71956900e-02
C     3.744317994339652e+00   7.217618826554570e-01   2.998941998625729e+00 -5.59634000e-03  -8.95483600e-02   2.75589300e-02
C     4.991607150883643e+00  -4.818889569457623e-04   3.000524670767790e+00  3.50009300e-02   1.61483400e-02  -2.44973400e-02
C     6.241041624588271e+00   7.194870790730554e-01   2.998908831747340e+00 -7.30181000e-02   3.78203900e-02   1.75677600e-02
C     7.488205092078018e+00   4.223187639816763e-04   2.998775316090981e+00  1.36490000e-04  -2.01668800e-02   1.28336900e-02
C     8.735805128765749e+00   7.202720329624767e-01   2.998934717336548e+00  9.76354000e-03   3.52858900e-02   7.15088000e-03
C     1.248674664484425e+00   2.160824048541949e+00   2.999920147356556e+00 -5.85234400e-02   2.23891200e-02  -8.06318000e-03
C     2.496378764326892e+00   2.880904911831693e+00   2.998921665623752e+00  5.90774000e-03   2.87833300e-02   1.67926400e-02
C     3.744616337714104e+00   2.160744453498174e+00   3.000086869569601e+00 -6.35165000e-03   6.58165000e-02  -1.51636200e-02
C     4.992439985802549e+00   2.882181353762474e+00   3.000048423151072e+00 -5.77859000e-03  -1.66093300e-02   1.38456600e-02
C     6.239914540832730e+00   2.160962049274254e+00   3.001027203769123e+00 -1.92843000e-03   3.53503000e-03  -1.85908700e-02
C     7.487020754901945e+00   2.882087013811566e+00   3.000620779029401e+00  4.18003000e-02  -4.65256000e-03   6.21216000e-03
C     8.735712939057967e+00   2.162228252089150e+00   3.000648047312942e+00 -2.94117000e-03  -3.17801900e-02  -1.74949600e-02
C     9.983470639488253e+00   2.882565428448013e+00   2.999190232360638e+00  5.11331800e-02  -3.30434800e-02   1.52147200e-02
C     2.496429208440567e+00   4.322690938115494e+00   3.000024883868469e+00 -2.05783000e-02  -1.03229100e-02  -1.83450300e-02
C     3.743385409580325e+00   5.043810365794223e+00   2.999104549436683e+00  3.99012900e-02   8.40474000e-03   1.91760500e-02
C     4.992289083190529e+00   4.323124917745188e+00   3.001125439663890e+00 -2.10339700e-02   2.27836700e-02  -1.73988600e-02
C     6.239645359935984e+00   5.044932432426660e+00   3.000783986558135e+00  4.85733100e-02  -8.60713200e-02   7.98460000e-03
C     7.488935613523118e+00   4.322762244084723e+00   3.000893409860847e+00 -6.56906800e-02   2.44715900e-02   8.76700000e-05
C     8.736434666490243e+00   5.042700865871848e+00   3.000849459006999e+00 -3.67157000e-03   3.85781900e-02   9.69600000e-05
C     9.985028562662798e+00   4.323176552160417e+00   3.000101499401906e+00 -3.53962000e-02  -1.07738400e-02  -7.43828000e-03
C     1.123232435745388e+01   5.043061391607542e+00   2.999207995098343e+00  1.73750900e-02   4.54038700e-02   1.84631600e-02
C     3.743923767280316e+00   6.485623603022677e+00   2.999736498227938e+00 -9.53020000e-03  -3.04697100e-02   6.95265000e-03
C     4.992778066614944e+00   7.205189651567413e+00   3.000098121905461e+00 -4.22331200e-02  -6.47533000e-03  -2.34690000e-04
C     6.240302221291954e+00   6.484086069289196e+00   3.001152066120536e+00  3.13177000e-03   6.36489400e-02  -1.98528700e-02
C     7.488692173281502e+00   7.205424464424484e+00   2.998848666501126e+00 -3.32484500e-02  -7.36347000e-03   3.65756400e-02
C     8.735113906008509e+00   6.484437007820747e+00   3.001081935529962e+00  4.84173800e-02  -1.84022800e-02  -2.32730100e-02
C     9.983515530572223e+00   7.204926725780729e+00   2.999556693330665e+00 -1.43216500e-02   1.06804400e-02   2.20326800e-02
C     1.123158479068708e+01   6.485393303002966e+00   3.000968853171448e+00  1.46389600e-02  -4.26037100e-02  -1.24365600e-02
C     1.247926330435079e+01   7.206281305014149e+00   3.001234133851263e+00  3.23712800e-02  -3.32523000e-02  -2.18844300e-02
