32
Lattice="9.86 0 0 4.93 8.53901048131456 0 0 0 30 " PBC="1 1 1" Properties=species:S:1:pos:R:3:force:R:3 Energy="-257.48852718"
C     9.817113239799999e+00   8.796979110007088e-01   3.569753100000000e+00  5.52925640e-01   1.16712553e+00  -2.41930840e-01
C     1.199111575000000e+00   1.621589855270986e+00   3.564456000000000e+00 -7.66252050e-01   3.36831340e-01  -3.50069500e-02
C     2.440569582200000e+00   9.067372000262576e-01   3.581343000000000e+00 -1.29101931e+00   6.82149220e-01   2.02631870e-01
C     3.644972822000000e+00   1.631695091053227e+00   3.677109300000000e+00  6.50211580e-01  -1.82612550e-01  -4.18022320e-01
C     4.870855036500000e+00   9.177727610002951e-01   3.661753200000000e+00  7.60649440e-01  -3.14370600e-01   1.29614610e-01
C     6.126545904399999e+00   1.610299575614330e+00   3.634913100000000e+00 -1.57318972e+00   1.64285712e+00  -4.99092020e-01
C     7.333119280900000e+00   9.510023202832152e-01   3.561399600000000e+00  1.07459475e+00  -1.43791224e+00   2.23423980e-01
C     8.585009168099999e+00   1.620297476034838e+00   3.516106800000000e+00  2.26456880e-01  -3.53880030e-01   2.80959310e-01
C     1.102352816610000e+01   3.072543724828979e+00   3.573414900000000e+00  1.07072837e+00  -1.25661042e+00   2.14428420e-01
C     2.432400769400000e+00   3.755045570359283e+00   3.673099500000000e+00 -1.38120153e+00   4.75217870e-01  -4.87069500e-02
C     3.653950647800000e+00   3.054617353177790e+00   3.687748500000000e+00 -3.89325550e-01  -2.46337230e-01  -1.49540510e-01
C     4.868042126400000e+00   3.774503584320269e+00   3.628395900000000e+00  1.33465968e+00  -1.20455213e+00   3.19473400e-01
C     6.125551424799999e+00   3.038807887614699e+00   3.569155800000000e+00 -1.09626114e+00   6.59781900e-01   1.44111760e-01
C     7.332945695599999e+00   3.772583673203945e+00   3.498095100000000e+00  8.23765990e-01  -1.16920731e+00   6.27619540e-01
C     8.582648043199999e+00   3.025341868087739e+00   3.510716700000000e+00 -8.23186430e-01   1.33617331e+00  -2.93543040e-01
C     9.782187147800000e+00   3.770108897186632e+00   3.529768500000000e+00  1.13420877e+00  -9.40165060e-01   2.94125170e-01
C     1.227425748200000e+01   5.186377391564970e+00   3.726082800000000e+00  4.56397340e-01  -5.55679870e-01  -3.13358040e-01
C     3.631027035200000e+00   5.898401584978303e+00   3.708915900000000e+00  9.94816760e-01   7.52766900e-01  -6.95801200e-02
C     4.889590219700000e+00   5.170877977472408e+00   3.660581700000000e+00 -4.58961730e-01   1.57152338e+00  -3.40004740e-01
C     6.139297398699999e+00   5.891870864373093e+00   3.571131600000000e+00 -1.09856515e+00  -5.87137200e-02   3.71697560e-01
C     7.346386157400000e+00   5.187939688922390e+00   3.578073900000000e+00  1.33525989e+00  -1.13557400e-01  -6.17398580e-01
C     8.615921747100000e+00   5.894830826965881e+00   3.590847600000000e+00 -1.98912528e+00   5.24380310e-01  -1.12408590e-01
C     9.813396660699999e+00   5.169652287908108e+00   3.592702500000000e+00  3.32661220e-01   1.04966321e+00   2.48773310e-01
C     1.105217077590000e+01   5.887326915336266e+00   3.692097000000000e+00 -3.42960130e-01  -2.37674290e-01  -1.96301470e-01
C     1.349562790840000e+01   7.354230631789642e+00   3.664005000000000e+00  3.96853500e-01  -1.46780525e+00  -1.01596140e-01
C     4.904131402600000e+00   8.002492838487347e+00   3.618030600000000e+00 -8.35811690e-01   7.17511280e-01  -3.32092240e-01
C     6.138797792500000e+00   7.311585361820740e+00   3.551462100000000e+00 -1.14154702e+00  -4.72359120e-01   2.78367420e-01
C     7.331653542600000e+00   8.029957370234801e+00   3.538951500000000e+00  1.31703702e+00   2.34651000e-01   3.11118570e-01
C     8.564826783400001e+00   7.335828381084403e+00   3.596736900000000e+00  9.72699180e-01  -1.08995767e+00   5.27420800e-02
C     9.803724493699999e+00   8.031746036760046e+00   3.656709900000000e+00  3.53334430e-01  -2.05829290e-01  -8.90218800e-02
C     1.105932233250000e+01   7.295650031243174e+00   3.685985400000000e+00 -8.99998030e-01   1.73264828e+00  -2.74441070e-01
C     1.226557126570000e+01   8.076124982026702e+00   3.620133300000000e+00  3.00144330e-01  -1.57605644e+00   4.32958510e-01
