32
Lattice="9.86 0 0 4.93 8.53901048131456 0 0 0 30 " PBC="1 1 1" Properties=species:S:1:pos:R:3:force:R:3 Energy="-255.16197269"
C     4.989270727799999e+00   8.336526973850274e+00  -5.446500000000007e-01 -1.61168428e+00  -9.87281310e-01   5.45239230e-01
C     1.265473072500000e+00   5.262594720527144e-01  -5.301791999999992e-01  1.07495493e+00  -2.21413710e-01   7.68194110e-01
C     7.441434486800000e+00   8.302607462520571e+00  -5.919348000000006e-01  1.49919560e-01   3.13415101e+00   9.68126900e-01
C     3.756794786200000e+00   5.003195806264656e-01  -4.270637999999991e-01 -2.86703460e-01  -1.45627380e-01  -1.02559170e-01
C     9.938328678100000e+00   8.313993635264918e+00  -3.715328999999983e-01 -1.77088462e+00  -3.19124490e-01   5.96107560e-01
C     6.214300939700000e+00   4.892693325544024e-01  -3.483836999999994e-01  3.86651110e-01  -8.32580400e-01  -3.55448070e-01
C     1.237127702260000e+01   8.246784193848200e+00  -3.288864000000018e-01  4.90848300e-01   5.13396942e+00  -7.52904210e-01
C     8.662885814500001e+00   4.632914425315176e-01  -5.527194000000009e-01 -8.86906700e-02   1.06571691e+00   3.89109420e-01
C     1.252678884400000e+00   1.938914001025601e+00  -1.660848000000001e-01  9.22750960e-01  -4.73625100e-01  -2.06623726e+00
C     2.505893413300000e+00   2.653566758034993e+00  -6.724469999999982e-02 -1.26840870e-01  -5.80036700e-01   8.41406810e-01
C     3.755526445100000e+00   1.939566979157007e+00  -2.445044999999979e-01 -1.27121687e+00  -7.64322360e-01   2.74136020e-01
C     4.980327214800000e+00   2.637916715797563e+00  -2.315853000000025e-01  2.30772400e-02  -4.27144630e-01  -6.87712470e-01
C     6.196497082800000e+00   1.914546226818826e+00  -4.235135999999997e-01 -1.48443221e+00  -8.28550570e-01   2.22528820e-01
C     7.368151022799999e+00   2.612741321979589e+00  -5.490870000000001e-01  3.11575859e+00   7.56944330e-01  -1.80225350e-01
C     8.610678248399999e+00   1.913361353724621e+00  -6.185642999999992e-01  2.12403592e+00  -6.34721200e-02   1.46750209e+00
C     9.906659294799999e+00   2.673913768377051e+00  -3.179784000000012e-01 -2.19291254e+00  -1.47181063e+00  -5.45100060e-01
C     2.491603167400000e+00   4.067836697010486e+00   2.508162000000000e-01  2.50369909e+00  -1.78107935e+00  -1.03890577e+00
C     3.739295554000000e+00   4.763411852975776e+00   1.937889000000000e-01  1.67120805e+00  -3.03201780e-01  -2.27339563e+00
C     4.968694386799999e+00   4.047913477758550e+00  -2.177493000000013e-01  1.92776880e-01   1.34854443e+00   1.51421810e+00
C     6.216559027600000e+00   4.779325152906304e+00  -3.975365999999987e-01 -9.08107900e-01   1.30158240e-01  -5.10279680e-01
C     7.457333786100000e+00   4.030919395271569e+00  -5.116977000000027e-01 -2.03482855e+00   9.80571580e-01   7.81203930e-01
C     8.651260874500000e+00   4.758135683790289e+00  -3.094250999999986e-01  5.81695210e-01   5.64279150e-01  -7.28781600e-01
C     9.895641829399999e+00   4.079446677219513e+00  -2.026565999999974e-01  1.37846859e+00  -1.91885900e-02   1.15995296e+00
C     1.119771177090000e+01   4.775625626615843e+00   1.357833000000000e-01 -5.22202357e+00   7.34139600e-02  -9.64069320e-01
C     3.773714644800000e+00   6.161565690521842e+00  -5.922329999999931e-02 -1.58452447e+00   1.12529818e+00   7.80137510e-01
C     4.948051244299999e+00   6.869600885189442e+00  -3.562338000000018e-01  2.13258170e-01   2.41524541e+00  -8.76105810e-01
C     6.154023210099999e+00   6.245780400529269e+00  -5.173085999999998e-01  2.24934557e+00  -3.45045400e+00   8.93979130e-01
C     7.413384315100000e+00   6.919912905717812e+00  -5.578895999999993e-01 -1.82577940e-01  -8.58235550e-01   1.36713580e-01
C     8.615500872999998e+00   6.197905669762206e+00  -3.281673000000005e-01  5.92206140e-01  -7.02223900e-01  -3.28504570e-01
C     9.863588546999999e+00   6.866448880250960e+00  -2.130225000000010e-01  8.26168920e-01   8.54881060e-01  -1.19497670e-01
C     1.108457734210000e+01   6.163781649131506e+00   3.635580000000000e-02  2.63839743e+00   2.27717341e+00  -3.70280400e-02
C     1.241671949480000e+01   6.956535099254541e+00  -2.311529999999706e-02 -2.36979271e+00  -5.63097450e+00   2.28198520e-01
