32
Lattice="9.86 0 0 4.93 8.53901048131456 0 0 0 30 " PBC="1 1 1" Properties=species:S:1:pos:R:3:force:R:3 Energy="-257.13308933"
C     4.936186558400000e+00   8.498520370886146e+00  -2.599443000000008e-01  6.47513240e-01   6.01030410e-01  -5.81087400e-02
C     1.248537930900000e+00   6.917781141751480e-01  -2.602599000000012e-01 -3.01847700e-02   4.51654800e-02  -9.95605000e-02
C     7.428052199000000e+00   8.514751151226321e+00  -2.853785999999978e-01 -1.52173586e+00   6.89435200e-01   3.08905300e-02
C     3.700915997000000e+00   7.029236576041681e-01  -2.186385000000008e-01  8.57486330e-01  -8.72682160e-01   9.24213810e-01
C     9.864118916399999e+00   8.508280801425204e+00  -9.081390000000056e-02  2.60471500e-01   1.77514930e-01  -2.25681590e-01
C     6.179102958200001e+00   6.645167254870145e-01  -8.642880000000019e-02 -6.85402000e-03   4.67866970e-01  -7.51392430e-01
C     1.235018771510000e+01   8.479525939804120e+00  -1.315629000000023e-01 -5.02432540e-01   1.21178326e+00   5.47498590e-01
C     8.645047496900000e+00   6.783508617557672e-01  -2.683925999999985e-01 -1.98378490e-01  -4.50685750e-01   6.13656850e-01
C     1.243801827800000e+00   2.125084923114754e+00  -1.279299000000016e-01 -1.24094410e-01  -1.91070870e-01   5.71016780e-01
C     2.473347525300000e+00   2.824835911375077e+00   1.026753000000000e-01 -4.81403400e-01  -3.49632660e-01  -9.04411740e-01
C     3.703991232400000e+00   2.105675923073923e+00  -3.884219999999772e-02 -7.48676420e-01   5.96761950e-01  -1.62072630e-01
C     4.911158476699999e+00   2.821899516451215e+00  -9.231090000000108e-02  1.91982688e+00  -2.60801510e-01   9.07932100e-02
C     6.164787076300000e+00   2.096760598402069e+00  -1.955163000000013e-01 -1.43079350e-01   1.76575590e-01   6.28099600e-02
C     7.399132819000000e+00   2.820284874959552e+00  -2.961318000000013e-01  7.37308000e-02  -1.88865110e-01   7.48688150e-01
C     8.650229715700000e+00   2.096477444814553e+00  -2.483784000000000e-01 -7.64489570e-01   1.03521092e+00  -3.85799760e-01
C     9.859137940200000e+00   2.851780844334823e+00  -1.338764999999995e-01  6.07222970e-01  -1.13626323e+00   1.00090210e-01
C     2.458206903700000e+00   4.248444026821394e+00   2.310387000000000e-01  1.55708332e+00  -5.72929940e-01  -3.35856990e-01
C     3.707133860900000e+00   4.942593168036524e+00   1.310409000000000e-01  3.32204300e-01   3.83086510e-01   3.56858790e-01
C     4.955429827400000e+00   4.243768833193490e+00  -4.567199999999971e-02 -1.20094660e+00   1.56772270e-01   8.73015100e-02
C     6.165449076700000e+00   4.974672522607787e+00  -1.859591999999992e-01  5.36966540e-01  -7.35797030e-01  -5.31594270e-01
C     7.402561732599999e+00   4.253090187813667e+00  -2.538221999999983e-01  4.53777850e-01  -1.73658750e-01   1.61399760e-01
C     8.658121610399999e+00   4.970363140188846e+00  -1.463862000000020e-01 -1.55789948e+00  -1.30264530e-01   7.86472900e-02
C     9.870769486399999e+00   4.260137091602392e+00   9.831299999999999e-03  4.69858370e-01   2.23830470e-01  -6.18046400e-02
C     1.112341829780000e+01   4.970683182301637e+00   2.131677000000000e-01 -2.08908867e+00  -1.02372016e+00  -5.74832790e-01
C     3.704995621300000e+00   6.371158691407110e+00   1.402878000000000e-01  7.25460620e-01   2.36660180e-01  -1.46340462e+00
C     4.939966685200000e+00   7.081536819770213e+00  -1.823510999999982e-01 -1.05421058e+00  -1.72694050e-01   4.67098250e-01
C     6.160271294899999e+00   6.387247553393106e+00  -3.188984999999995e-01 -2.70982360e-01  -2.07951910e-01   1.03588070e+00
C     7.382201029799999e+00   7.100538338230938e+00  -3.076620000000005e-01  6.33069570e-01  -1.05096020e-01   1.10736850e-01
C     8.589643910400000e+00   6.392564880609108e+00  -1.365359999999995e-01  2.03802574e+00  -1.94572720e-01  -1.70528040e-01
C     9.865192670399999e+00   7.087217994222766e+00  -1.819680000000190e-02 -1.40480536e+00  -7.20210100e-02  -1.18765630e-01
C     1.107303803620000e+01   6.361493983175531e+00   1.439655000000000e-01  1.34554529e+00   1.68869484e+00   9.56240900e-02
C     1.233533007550000e+01   7.092971323313876e+00   1.128036000000000e-01 -3.58981440e-01  -8.51681590e-01  -2.39390970e-01
