26
Lattice="8.88768389401873 1.33226762955019e-15 0 4.44384194700937 7.69696003302603 0 0 0 30 " PBC="1 1 1" Properties=species:S:1:pos:R:3:force:R:3 Energy="-208.37654189"
C     1.327059930042878e+01   7.639339278732215e+00  -3.676769999999863e-02  1.46795721e+00   2.57419896e+00  -5.75761540e-01
C     9.532218730549349e+00   7.460740326679300e+00  -3.592379999999906e-02  8.63899230e-01  -3.23949330e+00   9.32444900e-02
C     1.091118990165258e+01   7.032708069113383e+00   1.044537000000000e-01 -4.32345700e-01   1.62561380e+00  -2.63263390e-01
C     1.123654538882935e+01   5.677072748082401e+00   9.036330000000001e-02  1.15006644e+00  -1.45305151e+00  -2.53970640e-01
C     7.140136783766556e+00   6.857911107436887e+00  -2.205617999999987e-01  5.10855710e-01  -3.85915270e-01   9.31284500e-02
C     8.523501936920329e+00   6.448617406942406e+00  -1.458113999999995e-01 -8.75357450e-01   2.71849740e-01   3.29425940e-01
C     8.833294822954153e+00   5.060592970226783e+00  -5.804940000000158e-02  1.36469670e+00   7.91175340e-01   4.18662360e-01
C     1.024339537354007e+01   4.674824874124797e+00   1.614480000000000e-02 -1.74857616e+00   6.42436200e-02  -4.87822000e-01
C     1.055015236007977e+01   3.298245432125782e+00  -1.450880999999988e-01  2.67287850e-01   2.73133120e-01  -8.27196200e-02
C     4.748068124115892e+00   6.323916186590765e+00  -4.173330000000064e-02 -2.12194270e-01  -4.26115759e+00   3.05710940e-01
C     6.105946288355923e+00   5.892320621378961e+00  -1.075283999999996e-01  1.33350170e-01  -3.08708900e-01  -1.26975200e-02
C     6.434463613477513e+00   4.479008361271974e+00  -3.529050000000211e-02  1.03721333e+00   2.02967927e+00  -1.56651100e-01
C     7.809135456408454e+00   4.101259727825244e+00   7.137000000000001e-04  1.99619170e-01  -1.20126540e+00  -5.70991520e-01
C     8.174673762203161e+00   2.696589075652741e+00  -2.793540000000050e-02 -1.60846727e+00   1.55748216e+00   7.32004800e-02
C     9.508644456772901e+00   2.338937974540344e+00  -1.801332000000002e-01  1.53390856e+00  -1.64407151e+00   8.42138800e-02
C     3.733744401735040e+00   5.227792724475268e+00   3.831750000000000e-02 -8.87120720e-01   4.29413980e+00   1.64372610e-01
C     4.037228498718138e+00   3.906474684586043e+00  -2.426609999999840e-02  1.31101782e+00  -2.18612674e+00  -1.11453521e+00
C     5.437978583723293e+00   3.535154090338767e+00  -7.575870000000151e-02 -1.68435945e+00  -2.48924299e+00   6.94932320e-01
C     5.786207014174655e+00   2.119581233070970e+00  -1.663529999999724e-02 -1.99276574e+00   4.56091950e-01  -2.16460770e-01
C     7.109514798867714e+00   1.751933166332409e+00   3.160080000000000e-02  2.24206345e+00  -1.80854874e+00   8.99149000e-03
C     7.485904655621497e+00   3.446808767962429e-01   7.752690000000000e-02 -1.13661126e+00   3.59960590e-01  -1.92960040e-01
C     3.024418615582508e+00   2.884609491630377e+00  -2.320049999999974e-01  6.97015680e-01   1.65514951e+00   7.43716770e-01
C     3.411511287959474e+00   1.557910045166577e+00  -3.480902999999991e-01 -7.19659670e-01  -2.89749681e+00   1.15538365e+00
C     4.757464091235648e+00   1.071645666797692e+00  -8.934540000000268e-02 -4.61411970e-01   4.78920413e+00  -8.79136080e-01
C     1.019715880095381e+00   9.398231420566948e-01  -2.470742999999977e-01 -2.86501531e+00   2.13816230e-01   7.05402410e-01
C     2.342214885529782e+00   5.342019690709283e-01  -3.251598000000016e-01  1.84493364e+00   9.19340570e-01  -6.34163400e-02
