32
Lattice="10.06 0 0 5.03 8.71221556207145 0 0 0 30 " PBC="1 1 1" Properties=species:S:1:pos:R:3:force:R:3 Energy="-257.23667025"
C     1.105655047398891e-03  -3.264628668705739e-03   2.998466667522760e+00 -7.73997100e-02   1.99441470e-01   6.69598200e-02
C     1.255717533256307e+00   7.286987615682351e-01   3.003812720248811e+00  8.12121400e-02  -1.70579020e-01  -8.19746800e-02
C     2.515332700409536e+00   2.626977101247966e-03   2.997931210783766e+00 -1.05075400e-02  -2.88791000e-02   3.46441400e-02
C     3.771546955692947e+00   7.284713636688597e-01   2.995912304253009e+00  5.64583800e-02  -6.97017700e-02   3.92079500e-02
C     5.030589587609993e+00   6.250776434798876e-04   2.999491646617061e+00 -5.43951100e-02  -2.89350000e-03  -1.76946500e-02
C     6.289363165350250e+00   7.227426451531405e-01   3.001453893365874e+00 -6.58287100e-02   2.23045990e-01  -4.02466000e-03
C     7.545325899269536e+00   9.759131695639501e-04   3.001139264257879e+00  4.34760700e-02  -1.13014550e-01   2.30814300e-02
C     8.804562804562638e+00   7.231501176633449e-01   3.001382446734195e+00 -1.65150700e-02   2.08722620e-01  -3.87990700e-02
C     1.257081893583711e+00   2.175264814153840e+00   2.999876604743233e+00 -1.07563120e-01   1.94161810e-01   2.63013600e-02
C     2.515344886727250e+00   2.900966303467955e+00   3.001847458176569e+00 -1.40367820e-01   1.29851100e-01  -3.99247100e-02
C     3.771037375670301e+00   2.179330443545197e+00   2.998988593557318e+00  6.11655600e-02  -8.92128000e-02  -1.28269600e-02
C     5.028382363740861e+00   2.901245521015026e+00   2.997387922448286e+00  7.62415100e-02   2.26439080e-01   7.83971300e-02
C     6.288498688977506e+00   2.179987630488642e+00   3.002431184655060e+00 -8.82751500e-02  -2.02589190e-01  -6.21347700e-02
C     7.542477010240058e+00   2.904058625625651e+00   2.997346852651287e+00  1.36300370e-01   1.16262260e-01   6.09787400e-02
C     8.806017003866668e+00   2.182405648681791e+00   2.997757520474531e+00 -2.90040580e-01  -2.46363770e-01   7.80906000e-03
C     1.005501700670316e+01   2.907781248510934e+00   2.997837367782890e+00  3.65898820e-01  -1.38502500e-01   3.26170300e-02
C     2.512188515788580e+00   4.354878453954494e+00   2.998380582845874e+00  1.21025010e-01  -1.67056900e-02   6.91696600e-02
C     3.772036632102310e+00   5.079474411397114e+00   3.004111780843849e+00 -4.72328100e-02   1.08918220e-01  -6.78725900e-02
C     5.028257028754319e+00   4.357767396537652e+00   3.004654340649507e+00  1.09996210e-01  -1.75441330e-01  -3.63219900e-02
C     6.289405487884585e+00   5.082911570379035e+00   3.004025179557476e+00 -1.92784960e-01   9.30109800e-02  -1.95753600e-02
C     7.542447456884559e+00   4.359886461389569e+00   3.002567808342161e+00  1.04145580e-01  -2.43942830e-01  -5.83468200e-02
C     8.801939067685259e+00   5.078452113565530e+00   2.996658784023976e+00  6.27196400e-02   1.70093950e-01   8.95492500e-02
C     1.006139235038674e+01   4.355838770240461e+00   3.002511505522489e+00 -9.16859500e-02   7.24235600e-02  -6.95690200e-02
C     1.131863979916981e+01   5.084097535579542e+00   3.001551265088235e+00 -7.44110800e-02  -1.10812120e-01  -3.24313300e-02
C     3.772894751084257e+00   6.533000309356710e+00   2.997405459582099e+00 -9.90486800e-02   4.09853500e-02   9.72407100e-02
C     5.028932882109244e+00   7.262667689027371e+00   3.001857296416281e+00  7.31143200e-02  -2.26410050e-01  -6.43621000e-02
C     6.288181876808389e+00   6.535570888281566e+00   2.998802507649041e+00  8.63893000e-03   2.68042200e-02   6.15849800e-02
C     7.546543271648074e+00   7.262323722681661e+00   3.000638297330610e+00  1.76000000e-06  -8.89409000e-02  -1.87465700e-02
C     8.805430653367647e+00   6.531340349867061e+00   3.001860367557807e+00 -1.63360120e-01   1.08853410e-01  -5.43006200e-02
C     1.005840341027185e+01   7.261225704170768e+00   2.998687082714391e+00  8.91305900e-02  -7.00821900e-02   1.82723800e-02
C     1.131708948669314e+01   6.534001094223228e+00   2.998030488220406e+00 -2.98396300e-02   6.42936400e-02   5.42366600e-02
C     1.257237594993854e+01   7.259311552264138e+00   3.003524093914764e+00  1.59731130e-01   1.07636500e-02  -8.11443900e-02
