26
Lattice="8.88768389401873 1.33226762955019e-15 0 4.44384194700937 7.69696003302603 0 0 0 30 " PBC="1 1 1" Properties=species:S:1:pos:R:3:force:R:3 Energy="-205.73798058"
C     4.222688333873773e+00   7.234597252521074e+00  -4.271298000000030e-01 -3.58931696e+00   7.22609060e+00   2.84900230e-01
C     9.249015571684634e+00   7.141884290175713e+00  -3.505950000000020e-01  1.29517086e+00  -3.53971737e+00  -1.05806642e+00
C     1.067466396981090e+01   6.715621871599094e+00  -3.770604000000013e-01  2.44076380e-01  -1.28550290e-01   1.24667356e+00
C     1.104600517769259e+01   5.249292642927067e+00  -2.904459000000017e-01 -3.56285758e+00   4.25756329e+00  -6.35466400e-01
C     6.815282072026410e+00   6.501497677497315e+00  -4.913799000000019e-01  2.82721283e+00  -4.39955150e-01  -5.01083980e-01
C     8.164515363898648e+00   6.067337177325112e+00  -4.761603000000001e-01  3.06925422e+00   3.43345592e+00   8.76579320e-01
C     8.605658663607585e+00   4.742575517518465e+00  -4.157849999999996e-01 -3.88657334e+00  -2.61334100e-02  -7.21668200e-02
C     9.918482092010201e+00   4.390926505837462e+00  -3.628757999999976e-01  3.88251125e+00  -4.07619854e+00   1.70667530e-01
C     1.036759951047120e+01   2.895464899208687e+00  -4.080435000000016e-01 -1.71729009e+00   4.48884014e+00  -7.90064970e-01
C     4.530435763990056e+00   5.987156482270197e+00  -3.623379000000000e-01 -5.80027440e-01  -8.18522867e+00   1.30190260e-01
C     5.860577111011795e+00   5.526123970393257e+00  -4.500476999999989e-01 -2.03252449e+00   5.64878790e-01   4.92367650e-01
C     6.149081238960485e+00   4.158762946513372e+00  -3.717990000000029e-01  1.02782776e+00   2.65286149e+00  -3.37948770e-01
C     7.456756698643670e+00   3.779028728287703e+00  -3.947475000000011e-01  4.05629810e+00   1.91601521e+00   6.17425000e-03
C     7.786161947904497e+00   2.489189330681171e+00  -3.862530000000000e-01  4.62911213e+00  -5.00252039e+00   1.11216840e-01
C     9.290708937763837e+00   2.024127537198126e+00  -4.631787000000003e-01 -2.04111667e+00  -2.38183599e+00   2.95461850e-01
C     3.481447541463544e+00   4.914506054310189e+00  -2.805873000000005e-01  1.94866155e+00   1.46817198e+00  -8.81121890e-01
C     3.850448133437496e+00   3.576117311618427e+00  -4.617258000000000e-01  1.72665400e-02   7.39415920e-01   5.75151710e-01
C     5.187480857311907e+00   3.237657271857631e+00  -4.110584999999993e-01 -9.97447850e-01  -4.90270970e+00   6.03212900e-02
C     5.529152221202956e+00   1.796242794924312e+00  -3.665331000000016e-01 -1.75916799e+00   8.03593990e-01  -1.18708980e-01
C     6.853976866895876e+00   1.413746830470280e+00  -3.131990999999985e-01  2.22211577e+00  -6.74456180e-01  -4.78044140e-01
C     7.299589782787364e+00   1.858877422925240e-02  -3.289232999999996e-01 -2.68024758e+00  -1.03300531e+00  -4.35303250e-01
C     2.874491742609731e+00   2.620858839856771e+00  -5.636906999999987e-01 -3.64669991e+00  -4.51260798e+00   1.13515590e+00
C     3.058818394945496e+00   1.140083340843637e+00  -5.005134000000027e-01  4.98590469e+00   3.11219465e+00  -6.70567080e-01
C     4.523272953974675e+00   7.896571452026013e-01  -4.132539000000008e-01 -3.04555326e+00   1.01560766e+00   3.81752100e-02
C     7.171617892517180e-01   5.634765868490303e-01  -5.113319999999995e-01  7.06059480e-01   2.66709964e+00  -2.32886100e-01
C     2.083018294034700e+00   1.783017724261566e-01  -5.804888999999989e-01 -1.37264838e+00   5.57129670e-01   7.88393200e-01
