32
Lattice="9.86 0 0 4.93 8.53901048131456 0 0 0 30 " PBC="1 1 1" Properties=species:S:1:pos:R:3:force:R:3 Energy="-257.63552947"
C     9.794136925499998e+00   1.404903669160191e+00   3.387757200000000e+00  6.96348950e-01   1.39849039e+00   2.53329610e-01
C     1.103859784500000e+01   2.141364034254245e+00   3.439548000000000e+00 -5.08622270e-01  -1.01335010e-01  -3.21840200e-01
C     2.420137936700000e+00   1.418728497907521e+00   3.481042800000000e+00 -1.17143140e+00   5.66776190e-01   6.71030200e-02
C     3.634018608500000e+00   2.121135033037020e+00   3.511825800000000e+00  8.66129780e-01   7.79566310e-01  -2.35394300e-01
C     4.885369597400000e+00   1.429559293410248e+00   3.502404900000000e+00 -3.55893580e-01   2.78563660e-01  -1.07264240e-01
C     6.117746248800000e+00   2.162547611453029e+00   3.435855300000000e+00 -1.36141519e+00  -6.57780300e-02  -1.08786200e-02
C     7.315099342099999e+00   1.433127660499735e+00   3.377272200000000e+00  9.06530740e-01   2.73501340e-01   3.67338080e-01
C     8.563641217000001e+00   2.129222073692314e+00   3.372234000000000e+00  3.73441600e-01  -2.37885850e-01  -6.39921090e-01
C     1.102334555890000e+01   3.579285666017662e+00   3.394692000000000e+00  4.88123120e-01  -8.23840140e-01   1.48870850e-01
C     1.226617943050000e+01   4.264415221242976e+00   3.478722300000000e+00 -6.21776620e-01   8.34188430e-01  -2.66724950e-01
C     3.614694586100000e+00   3.555309149271079e+00   3.477703200000000e+00  7.75445900e-01   1.10124530e-01   1.73796610e-01
C     4.827064903099999e+00   4.314305756214053e+00   3.440446500000000e+00  1.61951869e+00  -1.25574864e+00   2.19784020e-01
C     6.094063416199999e+00   3.595794049588541e+00   3.418480500000000e+00 -7.28970990e-01  -8.66559440e-01  -1.25915790e-01
C     7.335764916099999e+00   4.247748951368322e+00   3.349486800000000e+00  5.73904870e-01   8.38826210e-01  -8.64971800e-02
C     8.587975894200000e+00   3.538752605681093e+00   3.273758100000000e+00 -5.83108840e-01   9.83245020e-01   6.53602700e-01
C     9.811475242500000e+00   4.298832898444084e+00   3.293142300000000e+00 -5.80546400e-01  -9.08459830e-01   3.41746440e-01
C     1.227301078360000e+01   5.703526337166258e+00   3.479490000000000e+00 -3.16250680e-01  -7.09686830e-01  -6.92391500e-02
C     1.348830745000000e+01   6.411992154132364e+00   3.503008200000000e+00  8.02487970e-01   1.02325832e+00  -6.35234420e-01
C     4.885069064600000e+00   5.727228922456642e+00   3.452204400000000e+00 -1.00645342e+00  -6.70266080e-01   3.15003500e-01
C     6.135132386799999e+00   6.392449774747837e+00   3.456737400000000e+00 -9.57780470e-01   1.31661496e+00  -1.40686350e-01
C     7.340177709799999e+00   5.675044467710217e+00   3.394794900000000e+00  9.67959560e-01   3.12284890e-01  -2.01301640e-01
C     8.573454677799999e+00   6.412238077634189e+00   3.372144900000000e+00 -2.21588280e-01   3.60548160e-01   4.17179000e-02
C     9.814352094699998e+00   5.717347494139081e+00   3.348657000000000e+00 -8.61406550e-01  -4.67517740e-01  -7.91480000e-03
C     1.103401846660000e+01   6.408819228618206e+00   3.425964300000000e+00  6.76405730e-01  -4.63895700e-02  -1.21920140e-01
C     1.349957121820000e+01   7.844473838489288e+00   3.414095400000000e+00 -5.42934670e-01  -3.27968540e-01   4.90963310e-01
C     9.806190578299999e+00   5.913520927714400e-03   3.427086600000000e+00 -2.17748070e-01  -6.56991520e-01  -1.71588400e-02
C     6.108130086599999e+00   7.843501074415406e+00   3.468824400000000e+00  3.92125700e-02  -1.19140892e+00  -2.01026830e-01
C     2.394275403200000e+00   6.784756166988801e-03   3.459816300000000e+00  4.01331640e-01   1.30732070e-01   8.20257700e-02
C     8.558274566900000e+00   7.855870087266000e+00   3.424380900000000e+00 -2.14507300e-02  -1.37301346e+00   3.37394130e-01
C     4.853733097199999e+00   8.662484571540801e-03   3.489771300000000e+00  1.28639857e+00  -1.80670910e-01  -6.04568100e-01
C     1.103404370820000e+01   7.811059153459161e+00   3.420592800000000e+00 -4.59268910e-01   1.51632516e+00   4.38872210e-01
C     7.326709393500000e+00   1.836920473468080e-02   3.412705800000000e+00  4.34073600e-02  -8.39525130e-01  -1.38061520e-01
