32
Lattice="9.86 0 0 4.93 8.53901048131456 0 0 0 30 " PBC="1 1 1" Properties=species:S:1:pos:R:3:force:R:3 Energy="-251.73891781"
C     9.560083449999999e+00   1.013785309447310e+00   3.376581900000000e+00 -1.13694250e-01  -4.94985700e-02   3.24168346e+00
C     1.076565209250000e+01   1.687644651690598e+00   3.705694200000000e+00  2.95678372e+00  -3.83020950e-01  -1.94564590e+00
C     2.163067277200000e+00   9.232984400720080e-01   3.540923100000000e+00  1.24336252e+00   1.08055552e+00   7.67079280e-01
C     3.385611191500000e+00   1.726135949231294e+00   3.540798900000000e+00 -1.17074016e+00  -8.17826290e-01  -7.45653070e-01
C     4.626144478599999e+00   9.727818350233983e-01   3.296675400000000e+00 -2.43102193e+00   1.91763233e+00   2.54487175e+00
C     5.813318354399999e+00   1.644166828199896e+00   3.473321400000000e+00  4.73794838e+00   2.62776076e+00   1.00340816e+00
C     7.157838751100000e+00   9.963625686342328e-01   3.670327200000000e+00 -3.56491937e+00  -3.34653722e+00  -3.25385370e-01
C     8.309108373599999e+00   1.719009888815419e+00   3.639623100000000e+00  2.87226634e+00   2.17031900e-01  -7.43496490e-01
C     1.091535696550000e+01   3.116840183254398e+00   3.749547300000000e+00 -2.75112417e+00   7.89371050e-01  -5.05941700e-02
C     1.211556955740000e+01   3.918708514724203e+00   3.965955300000000e+00 -3.40846436e+00   3.88033110e-01  -2.26042144e+00
C     3.366939408099999e+00   3.184538141460676e+00   3.676465800000000e+00  2.68756075e+00  -3.52982345e+00  -3.61972080e-01
C     4.621765406100000e+00   3.749276017148262e+00   3.459506400000000e+00  1.02595874e+00   6.01965795e+00   7.50844920e-01
C     5.868887391700000e+00   3.176383728012695e+00   3.560631000000000e+00  2.57717360e-01  -4.57527977e+00  -8.78940250e-01
C     7.114727084300000e+00   3.860832211762126e+00   3.622003200000000e+00  1.35041275e+00  -1.41540168e+00   3.96719120e-01
C     8.396247849100000e+00   3.130271875959228e+00   3.688409700000000e+00 -1.76044054e+00   2.03499900e-02  -1.81537739e+00
C     9.636321512300000e+00   3.789053802007874e+00   3.447040800000000e+00  7.11965720e-01   5.78514430e-01   2.45846103e+00
C     1.204207075100000e+01   5.373465232599465e+00   3.764622900000000e+00  1.00556741e+00  -2.77180444e+00  -6.13120200e-01
C     3.472125493700000e+00   5.973014860821809e+00   3.397915800000000e+00 -7.11508330e-01  -3.50075001e+00   1.42460777e+00
C     4.687819518100000e+00   5.288234721905335e+00   3.398685600000000e+00  9.90753520e-01  -3.92807475e+00   2.05911100e-02
C     5.970176115099999e+00   5.977154743882722e+00   3.405640800000000e+00 -2.59674117e+00  -2.14505606e+00   4.95345890e-01
C     7.188677971699999e+00   5.244855353205468e+00   3.605206500000000e+00 -1.81599099e+00   5.97128450e-01  -1.25084909e+00
C     8.411801407499999e+00   5.914526566978630e+00   3.533684100000000e+00 -1.02167225e+00  -9.15034400e-01  -2.50298350e-01
C     9.596646597800000e+00   5.221713183172887e+00   3.440365500000000e+00  1.90843261e+00  -9.90356210e-01   1.49391301e+00
C     1.076739903800000e+01   5.972779611083086e+00   3.687440400000000e+00  1.20207637e+00   2.78049517e+00  -1.53254642e+00
C     1.342220916520000e+01   7.279882833781959e+00   3.403684500000000e+00 -3.38715449e+00   7.34894971e+00   1.99195561e+00
C     4.722918801000000e+00   8.130537520777672e+00   3.468581700000000e+00 -1.42760406e+00  -1.70907698e+00  -2.14462501e+00
C     5.889926610400000e+00   7.353179991940182e+00   3.368984700000000e+00  3.17942283e+00   2.25639711e+00   4.90517410e-01
C     7.184137540299999e+00   8.012138760895869e+00   3.425710800000000e+00 -2.41759299e+00   1.36654624e+00   3.49024180e-01
C     8.381242408100000e+00   7.272448173527336e+00   3.499690500000000e+00  2.38353850e-01   4.65777193e+00   1.84403090e-01
C     9.533123104100000e+00   8.145137093945852e+00   3.578084700000000e+00  6.01596930e-01  -1.66973043e+00  -1.96232851e+00
C     1.077115776860000e+01   7.526114764664496e+00   3.563123100000000e+00  3.12278833e+00  -5.72247055e+00   1.99481458e+00
C     1.214311070660000e+01   7.978644065337546e+00   3.736387800000000e+00 -1.51429906e+00   4.82354611e+00  -2.72698663e+00
