32
Lattice="9.86 0 0 4.93 8.53901048131456 0 0 0 30 " PBC="1 1 1" Properties=species:S:1:pos:R:3:force:R:3 Energy="-251.91472537"
C     4.929662886600000e+00   8.459488041641437e+00  -5.694678000000017e-01  2.04395983e+00  -5.71701070e-01   2.26965300e-01
C     1.279783679300000e+00   6.576027740914633e-01  -5.789784000000004e-01 -5.13949460e-01   5.56199020e-01  -1.11521900e-01
C     7.467785879099999e+00   8.442082208069110e+00  -6.777398999999988e-01 -1.78526353e+00   5.67624927e+00   1.08734709e+00
C     3.727875603400000e+00   7.504663062536640e-01  -4.613322000000011e-01 -1.99986740e-01  -5.48838854e+00   9.64567350e-01
C     9.854102586100000e+00   8.484316495463609e+00  -1.953923999999994e-01  1.29145264e+00  -1.60051170e-01  -2.53381200e-01
C     6.205737283200000e+00   5.702595414243727e-01  -1.893909000000029e-01 -4.21811860e-01   3.22280216e+00  -1.81477083e+00
C     1.237933062130000e+01   8.384627988395058e+00  -2.784218999999979e-01 -1.04753311e+00   3.28447026e+00   6.36648270e-01
C     8.660286619899999e+00   6.147055179232969e-01  -5.760560999999988e-01 -6.07232620e-01  -1.32552890e-01   1.28408059e+00
C     1.268365503500000e+00   2.131719990428028e+00  -2.737101000000024e-01 -1.28536900e-01  -1.40972240e+00   9.93998350e-01
C     2.493168195900000e+00   2.741706765769972e+00   2.147262000000000e-01 -2.07553293e+00   2.33708602e+00  -1.72313230e+00
C     3.696003794300000e+00   2.075677098406111e+00  -7.838429999999974e-02 -5.84311400e-01   1.23789033e+00  -1.50193300e-02
C     4.886439012999999e+00   2.797564958995207e+00  -1.838876999999997e-01  4.41010192e+00  -2.56161400e-01  -1.24858700e-01
C     6.168502965199999e+00   2.087740585461731e+00  -4.209783000000016e-01 -7.03204200e-02  -1.89223592e+00   1.93978670e-01
C     7.413299371199999e+00   2.790415245520302e+00  -6.714146999999997e-01 -6.28785140e-01  -2.14486150e-01   2.22503601e+00
C     8.681717477799999e+00   2.036699162658160e+00  -5.423597999999998e-01 -1.38532603e+00   2.87579650e+00  -5.99249600e-01
C     9.855831487800000e+00   2.871848543644080e+00  -2.827058999999998e-01  1.44520787e+00  -2.60689365e+00   1.81360070e-01
C     1.232914923590000e+01   4.284912091218960e+00   4.641264000000000e-01  1.97016509e+00  -6.15612792e+00  -5.91823490e-01
C     3.694663968200000e+00   4.868010974191165e+00   3.039636000000000e-01  3.95127362e+00   3.74895672e+00  -3.43315150e-01
C     4.991355427599999e+00   4.199316623216915e+00  -8.288759999999940e-02 -2.70934705e+00   1.40879095e+00   3.61196300e-01
C     6.169132822000000e+00   4.994230357601285e+00  -4.053506999999996e-01  1.97644740e-01  -2.84013816e+00  -6.20017620e-01
C     7.395027410799999e+00   4.242303538995121e+00  -5.399750999999995e-01  1.49517776e+00  -1.01930467e+00   3.23025600e-01
C     8.663086613399999e+00   4.930834011314411e+00  -2.790714000000030e-01 -1.87183225e+00   1.91863500e+00  -1.16315980e-01
C     9.886880578500000e+00   4.268947898785970e+00   3.457200000000000e-02 -6.41842440e-01  -1.29258168e+00  -5.34059680e-01
C     1.114140205040000e+01   4.925473732875696e+00   4.415502000000000e-01 -4.28941229e+00   6.87603800e-02  -1.31768889e+00
C     3.786473336900000e+00   6.376879657648500e+00   2.986518000000000e-01 -8.27133380e-01  -1.33307047e+00  -2.86235691e+00
C     4.940652941200000e+00   6.994093766070611e+00  -3.778283999999985e-01 -1.49577560e+00   2.45157376e+00   8.01067480e-01
C     6.151550815099999e+00   6.373944799746524e+00  -6.852531000000006e-01 -1.16715797e+00  -1.32916990e+00   2.21730640e+00
C     7.354143709600000e+00   7.083626144854459e+00  -6.714345000000002e-01  2.47647354e+00  -1.30447364e+00   1.08799820e-01
C     8.535359532499999e+00   6.403233093352296e+00  -3.055248000000006e-01  3.74193676e+00  -2.43619942e+00   3.32287970e-01
C     9.853892321600000e+00   7.040219792881476e+00  -3.780090000000058e-02 -2.15644184e+00   3.67675790e-01  -4.59428700e-01
C     1.105115494940000e+01   6.285106557124595e+00   3.085626000000000e-01  1.74980920e+00   5.16772569e+00  -4.15273840e-01
C     1.237177751620000e+01   7.111884804576553e+00   2.328708000000000e-01 -1.65669990e-01  -3.87935277e+00  -3.54511700e-02
