32
Lattice="9.86 0 0 4.93 8.53901048131456 0 0 0 30 " PBC="1 1 1" Properties=species:S:1:pos:R:3:force:R:3 Energy="-255.78178478"
C     9.782510752999999e+00   5.962580958526191e-01   3.116445000000000e+00  5.29516230e-01  -4.93625720e-01  -2.81811590e-01
C     1.160605711400000e+00   1.285844672988075e+00   3.172240500000000e+00 -2.46098129e+00   4.20479947e+00  -1.69968030e-01
C     2.370323294000000e+00   6.420159205315856e-01   3.272510100000000e+00 -8.37490470e-01  -6.58211820e-01   2.00118670e-01
C     3.539730485100000e+00   1.366163032513479e+00   3.338600100000000e+00  3.95770894e+00   7.02673010e-01  -1.00268010e-01
C     4.806630250300000e+00   6.691541766885977e-01   3.316606800000000e+00  8.54501610e-01  -2.16982410e-01   7.27148990e-01
C     6.082854420299999e+00   1.375830046277887e+00   3.335220600000000e+00 -1.32395116e+00   7.98749200e-01  -8.32091060e-01
C     7.311199169800000e+00   7.113000853246287e-01   3.153070200000000e+00 -1.20339597e+00  -2.02723711e+00   8.58438280e-01
C     8.566847836899999e+00   1.320081408557111e+00   3.083913000000000e+00 -1.05550610e-01   1.54186405e+00  -1.49111650e-01
C     1.096992876240000e+01   2.845988491965819e+00   3.177734100000000e+00  1.03918377e+00  -3.56069171e+00   2.32988980e-01
C     2.351411419600000e+00   3.476025717815852e+00   3.431103300000000e+00  1.58858790e-01   8.91522510e-01  -4.98024830e-01
C     3.627559766200000e+00   2.797738300907950e+00   3.390368400000000e+00 -2.91886361e+00  -7.04805090e-01  -6.66967200e-02
C     4.791947477800000e+00   3.535954713507216e+00   3.328301400000000e+00  3.13813448e+00  -9.21857090e-01   1.02060774e+00
C     6.087265537800000e+00   2.785601463752307e+00   3.338644800000000e+00 -1.86622803e+00   1.33854939e+00  -7.76255000e-01
C     7.301794800400000e+00   3.500424915581193e+00   3.172061100000000e+00  9.92227810e-01  -1.42038498e+00   1.16818588e+00
C     8.532836457100000e+00   2.731908934365010e+00   3.056848200000000e+00  4.13676290e-01   2.74926523e+00  -1.87285070e-01
C     9.753769789699998e+00   3.565799323645759e+00   3.018714300000000e+00 -1.49421530e-01  -4.50644752e+00   1.13120883e+00
C     1.220359322840000e+01   4.893583431996460e+00   3.525299400000000e+00  2.86495042e+00   1.19257448e+00  -1.11384845e+00
C     3.620654808200000e+00   5.689916862263233e+00   3.414059700000000e+00 -2.13429415e+00  -1.57746005e+00  -7.62987200e-02
C     4.858107781999999e+00   4.961251845226477e+00   3.367690200000000e+00 -1.63980012e+00  -5.47578970e-01  -1.35650690e-01
C     6.090075292699999e+00   5.608566819491635e+00   3.304008000000000e+00  8.47836190e-01   1.12678821e+00   2.30137900e-01
C     7.337453490400000e+00   4.909808918150136e+00   3.360024000000000e+00 -1.69011330e-01   6.67489560e-01  -2.28821929e+00
C     8.551615468000000e+00   5.656244469896820e+00   3.172866900000000e+00 -2.50627020e-01  -1.15875520e-01   1.11620161e+00
C     9.779189510599998e+00   4.907026737755542e+00   3.193725300000000e+00 -5.04922860e-01   3.38140615e+00  -6.64021600e-02
C     1.102510349830000e+01   5.614757772869845e+00   3.380574000000000e+00 -1.44437069e+00  -7.55510450e-01  -1.02769270e-01
C     1.339829408030000e+01   7.100193959938279e+00   3.215202600000000e+00  1.18559957e+00  -1.36995617e+00   5.64531060e-01
C     4.821777872500000e+00   7.694128078698662e+00   3.145075500000000e+00 -8.33173600e-02   2.54834226e+00  -4.12734900e-02
C     6.069622793300000e+00   7.042000603517079e+00   3.199690200000000e+00 -8.42849200e-02  -1.13527716e+00   6.41200970e-01
C     7.280724325500000e+00   7.768958501578675e+00   3.286895400000000e+00  6.93952580e-01  -2.10918160e-01  -7.83964410e-01
C     8.530862238599999e+00   7.104880254279808e+00   3.232193400000000e+00 -3.68652670e-01  -2.02684801e+00   8.14346380e-01
C     9.756138457500001e+00   7.779926177419396e+00   3.365496000000000e+00  5.12708300e-01  -2.90004100e-01  -1.01283825e+00
C     1.099399677590000e+01   7.003327766613578e+00   3.362345400000000e+00 -2.69526770e-01   4.04568215e+00  -1.98856630e-01
C     1.217709861960000e+01   7.842607723138989e+00   3.238374300000000e+00  6.25835600e-01  -2.65003364e+00   1.76518030e-01
