26
Lattice="8.88768389401873 1.33226762955019e-15 0 4.44384194700937 7.69696003302603 0 0 0 30 " PBC="1 1 1" Properties=species:S:1:pos:R:3:force:R:3 Energy="-208.54826929"
C     1.293673660990040e+01   7.133942643786360e+00  -4.515500999999986e-01 -1.44491482e+00   2.12115704e+00   4.12644350e-01
C     9.145688780683763e+00   6.949224300631193e+00  -3.810879000000007e-01 -1.16106250e-01   6.55148000e-02  -1.03840541e+00
C     1.050205217256510e+01   6.587049234291564e+00  -4.173761999999996e-01  1.34545989e+00  -2.32851820e+00   1.17617581e+00
C     1.092059582516823e+01   5.151614602575153e+00  -3.266091000000024e-01 -4.42845045e+00   1.43973789e+00  -4.11791190e-01
C     6.766692704155444e+00   6.349776048051558e+00  -4.198515000000000e-01  3.45440400e-02   1.09546387e+00  -1.01267828e+00
C     8.128933121430165e+00   5.960975118788951e+00  -4.953032999999998e-01 -4.03961500e-02   3.53464200e-01   1.44100998e+00
C     8.474950962744689e+00   4.604979426089365e+00  -3.788844000000005e-01 -6.19788290e-01  -5.80229080e-01  -3.21710830e-01
C     9.819264032831931e+00   4.196228592185799e+00  -3.017012999999977e-01  1.63904212e+00  -5.97539440e-01  -4.11766640e-01
C     1.015766330704019e+01   2.782753926222180e+00  -3.656723999999976e-01  2.03765887e+00   2.66470277e+00  -8.67032000e-01
C     4.354412829169165e+00   5.766699614303735e+00  -4.456091999999998e-01  5.08510790e-01  -3.58933850e-01   5.51590110e-01
C     5.730530920464846e+00   5.394708076050645e+00  -4.048802999999985e-01 -4.23976710e-01  -6.33253850e-01  -2.58283820e-01
C     6.070097103150001e+00   4.012882924882383e+00  -3.960705000000004e-01 -2.32597300e-01  -3.15418200e-02   2.94091440e-01
C     7.411155325658200e+00   3.627455727140126e+00  -3.990504000000001e-01  1.90215544e+00  -4.61630200e-02   1.72116080e-01
C     7.786789995942099e+00   2.266770045785460e+00  -4.076036999999992e-01 -1.20114034e+00  -1.75113460e+00  -4.39637500e-02
C     9.162330876579428e+00   1.851496269165271e+00  -4.939068000000013e-01 -1.74406112e+00  -1.06650203e+00   9.86318890e-01
C     3.327533075859237e+00   4.744623755552048e+00  -3.708518999999981e-01  2.64839093e+00   5.91378980e-01  -7.75566460e-01
C     3.710244786626603e+00   3.374634835578721e+00  -4.912458000000015e-01 -7.84548750e-01   4.24071500e-01   1.19371225e+00
C     5.082381151097987e+00   2.997782590097085e+00  -3.655439999999999e-01 -1.71890962e+00   1.32064671e+00  -8.93786840e-01
C     5.367132454534416e+00   1.646264219046950e+00  -3.514083000000028e-01  7.96406770e-01  -1.79417449e+00  -1.90056760e-01
C     6.719512564226495e+00   1.248010268323498e+00  -3.593429999999991e-01  2.04637463e+00   3.15301110e-01  -4.78306500e-02
C     1.150976243596409e+01   7.553786105576359e+00  -3.672054000000031e-01  1.87940753e+00   5.47696830e-01  -6.92545060e-01
C     2.662769870112407e+00   2.419541771488110e+00  -5.086842000000011e-01 -1.68303910e-01  -8.89693360e-01   3.21808230e-01
C     3.011474102729675e+00   1.017600153463842e+00  -5.582616000000016e-01  6.52304830e-01   1.31871394e+00   5.66004520e-01
C     4.363597624988756e+00   6.207422773506316e-01  -4.283144999999990e-01  7.07448300e-02   1.09416284e+00  -5.54640600e-02
C     6.284866562865576e-01   4.848999382643667e-01  -4.687614000000018e-01 -8.63673700e-02  -2.39856859e+00  -6.30270270e-01
C     2.021868895749003e+00   5.767085847758040e-02  -5.254010999999998e-01 -2.55143962e+00  -8.75760140e-01   5.35680350e-01
