32
Lattice="9.68 0 0 4.84 8.38312590863337 0 0 0 30 " PBC="1 1 1" Properties=species:S:1:pos:R:3:force:R:3 Energy="-257.31275019"
C     8.441388273899605e-04  -7.770718616911836e-04   2.998921558978622e+00 -9.73420300e-02   3.74294400e-02   1.81734500e-02
C     1.209664923039534e+00   6.980502959666746e-01   3.000072600544247e+00  3.09166600e-02   5.39048400e-02  -2.18187300e-02
C     2.419530323776081e+00  -4.731720508469737e-04   2.999060413888345e+00  2.50435200e-02   2.93348100e-02   1.24989400e-02
C     3.629394755613590e+00   6.996044900722116e-01   2.999429235384873e+00  2.41310400e-02  -7.15192300e-02   8.98937000e-03
C     4.840527012323686e+00   8.850303827401728e-04   3.000743132347034e+00 -9.38920300e-02  -2.34814700e-02  -2.39335400e-02
C     6.049299532410034e+00   6.977885538555717e-01   2.998903029467871e+00  3.70240500e-02   6.57034100e-02   2.46674700e-02
C     7.258885401994453e+00  -7.254414403433555e-04   3.001206475034600e+00  7.88798800e-02   4.95355500e-02  -1.70701000e-02
C     8.469692144487553e+00   6.992242605823551e-01   2.999935808151293e+00 -9.16720000e-04  -7.23658000e-02  -3.99894000e-03
C     1.210023511040079e+00   2.096858470127942e+00   2.999054860888987e+00 -1.77150900e-02  -1.18193750e-01   6.40239000e-03
C     2.419915525449051e+00   2.793507866606748e+00   3.000092804004420e+00 -8.57230000e-03   8.82175000e-02   4.30600000e-03
C     3.629513576748730e+00   2.095872820589335e+00   3.000400818641536e+00  2.51751500e-02   5.70922000e-03  -4.05510000e-03
C     4.839671675697375e+00   2.794673007936578e+00   3.000345394222293e+00  1.41933000e-02  -3.63014000e-03   4.08511000e-03
C     6.049806356004636e+00   2.095547323848646e+00   2.999734817189154e+00 -2.64447700e-02  -1.38700800e-02  -1.00314500e-02
C     7.259772978644383e+00   2.793358094852832e+00   2.998927531507417e+00 -3.09503600e-02   5.45252400e-02   1.25170000e-02
C     8.468979560798891e+00   2.096255017460088e+00   2.998860564685391e+00  6.95889700e-02  -5.95531800e-02   1.54780000e-03
C     9.679998771655745e+00   2.793486277926730e+00   2.998864428633181e+00 -2.56238500e-02   9.23464700e-02   8.04092000e-03
C     2.420337564416520e+00   4.191432269833681e+00   3.001148548058441e+00 -5.01086300e-02  -2.17786100e-02  -1.64563200e-02
C     3.629588033556339e+00   4.889419708108306e+00   3.000445391833798e+00 -1.48629000e-03   2.71820500e-02   1.08508700e-02
C     4.839639659234586e+00   4.192218861710963e+00   3.000706154793314e+00  2.12664400e-02  -5.07565400e-02  -1.31120700e-02
C     6.049864176505683e+00   4.889597344525175e+00   2.998847848701372e+00  2.17926800e-02   4.81304200e-02   1.79565700e-02
C     7.259688624809158e+00   4.190589463045450e+00   3.000550604567559e+00  1.12414000e-03   3.01788700e-02  -1.69833800e-02
C     8.469901855509313e+00   4.890206381505170e+00   3.000446657083827e+00 -4.24870000e-03  -2.79730800e-02   5.41537000e-03
C     9.679819202514608e+00   4.191813359115376e+00   3.000783714842465e+00  1.26409400e-02  -3.96077400e-02  -1.96640000e-02
C     1.088988352845753e+01   4.891095607422630e+00   2.999323366878750e+00 -8.16650000e-04  -1.02906960e-01   1.85333700e-02
C     3.629048510817164e+00   6.286163495979047e+00   3.001011418184737e+00  5.90349600e-02   6.28753800e-02  -5.38088000e-03
C     4.840330490238431e+00   6.985260081324828e+00   3.000115076889423e+00 -3.84034600e-02  -4.73026000e-03  -7.10688000e-03
C     6.051018335202240e+00   6.288253543054861e+00   2.999098773014984e+00 -7.08029300e-02  -1.06854130e-01   7.47357000e-03
C     7.259524842050284e+00   6.985442874897983e+00   3.000167234191095e+00  8.39856900e-02   2.91354800e-02  -1.15395600e-02
C     8.470589075503307e+00   6.286933068223378e+00   3.000261002583842e+00 -3.94400300e-02   4.50271200e-02  -4.02761000e-03
C     9.680037934354619e+00   6.986954174948060e+00   2.999277307199069e+00 -1.92141300e-02  -5.12178000e-02   1.47271800e-02
C     1.088879398031378e+01   6.286308025811122e+00   2.999807596681569e+00  7.06886500e-02   1.19983020e-01  -2.76220000e-03
C     1.209999738003988e+01   6.986116736275954e+00   3.000920503584392e+00 -4.95080800e-02  -7.07800600e-02   1.75538000e-03
