2
Lattice="2.428 0 0 1.214 2.10270968038862 0 0 0 30 " PBC="1 1 1" Properties=species:S:1:pos:R:3:force:R:3 Energy="-16.09790173"
C     0.000000000000000e+00   0.000000000000000e+00   3.000000000000000e+00 -0.00000000e+00   0.00000000e+00  -0.00000000e+00
C     1.214000000000000e+00   7.009032267962056e-01   3.000000000000000e+00  0.00000000e+00   0.00000000e+00   0.00000000e+00
