32
Lattice="9.86 0 0 4.93 8.53901048131456 0 0 0 30 " PBC="1 1 1" Properties=species:S:1:pos:R:3:force:R:3 Energy="-252.36083915"
C     5.220534316300000e+00   8.065403229687803e+00  -3.744663000000017e-01  1.20364254e+00   1.05233110e-01   5.15485430e-01
C     1.573114538100000e+00   2.557453278484104e-01  -3.898829999999975e-01 -2.40054227e+00  -1.73688233e+00  -7.49483760e-01
C     7.651260561900000e+00   8.051923035403448e+00  -6.992148000000000e-01  2.62414618e+00   2.53316086e+00   1.98148889e+00
C     4.017411200300000e+00   3.097439807614152e-01  -5.991192000000005e-01 -1.91692874e+00  -2.32814655e+00   1.83400873e+00
C     1.019105674710000e+01   8.089460867033948e+00  -3.439382999999978e-01 -3.20301926e+00  -5.59749480e-01  -2.23941625e+00
C     6.446338094500000e+00   2.222783840741464e-01  -4.920068999999998e-01  2.65473439e+00  -5.79534200e-01   1.65952913e+00
C     1.262438918790000e+01   8.022160655935826e+00  -3.074792999999971e-01  3.82357520e-01  -6.77167250e-01   8.83986330e-01
C     8.969328599899999e+00   2.140158667534888e-01  -3.444353999999983e-01 -3.81828626e+00   2.22409984e+00  -2.90627820e-01
C     1.528164375700000e+00   1.604005044038998e+00  -3.071190000000001e-02  9.11711900e-02   2.44451908e+00  -4.50290800e-02
C     2.756277513800000e+00   2.303213634353632e+00   2.838915000000000e-01 -4.51983490e-01   2.20242630e-01  -1.35710662e+00
C     3.952594616899999e+00   1.665862148296746e+00  -1.301456999999999e-01  1.77607170e+00  -1.17068402e+00  -3.64903270e-01
C     5.258944143499999e+00   2.289590753204154e+00  -1.134461999999985e-01 -3.20857459e+00   3.14750198e+00   4.23743880e-01
C     6.405296090999999e+00   1.633594850104818e+00  -4.195104000000001e-01  2.36258118e+00  -1.28400730e-01  -1.18445000e-03
C     7.646253752500000e+00   2.373022350560462e+00  -3.650771999999982e-01 -4.88412230e-01  -2.54894285e+00  -7.94205950e-01
C     8.837371135300000e+00   1.704902504211306e+00  -3.612038999999996e-01  5.42667908e+00  -2.24142595e+00   6.44163050e-01
C     1.019923162380000e+01   2.427786525762998e+00  -1.175655000000013e-01 -2.83828001e+00  -2.00240176e+00   8.50353510e-01
C     2.731408523200000e+00   3.704799129431400e+00   5.727300000000000e-01  1.97817868e+00   9.32492310e-01  -1.20207690e-01
C     4.015669875000000e+00   4.466573305703308e+00   4.703060999999999e-01  9.24800700e-01  -1.55462895e+00  -1.29592989e+00
C     5.243007967800000e+00   3.757177761276139e+00   6.867570000000001e-02  4.67420500e-02  -5.46083820e-01  -9.21762400e-02
C     6.440840996599999e+00   4.478453630984133e+00  -2.863025999999991e-01  4.61677330e-01   2.73356100e-01   1.03964562e+00
C     7.741936079899999e+00   3.717993523034991e+00  -4.095689999999976e-01 -3.93982217e+00   3.41215825e+00   1.01831795e+00
C     8.881568486700001e+00   4.444082320609931e+00  -1.806866999999990e-01  2.90008154e+00   2.96763824e+00   3.85178180e-01
C     1.016982442030000e+01   3.829384573186172e+00   2.160078000000000e-01 -2.16342734e+00  -2.86162574e+00  -1.75112755e+00
C     1.137293466900000e+01   4.421924015364856e+00   5.777426999999999e-01 -6.89661770e-01   3.51153024e+00  -1.56726315e+00
C     4.082869817600000e+00   5.868363907812806e+00   2.820420000000000e-01 -4.31616273e+00   2.36793185e+00  -1.16007651e+00
C     5.151265055500000e+00   6.658836929797052e+00  -2.035266000000000e-01  3.14984161e+00  -2.36724509e+00   1.11592496e+00
C     6.425506872500000e+00   5.925215529517284e+00  -2.494130999999982e-01 -8.58708960e-01   1.31866020e-01  -1.46754043e+00
C     7.620930215900000e+00   6.663610748996001e+00  -5.185430999999987e-01  7.54511870e-01  -2.25997181e+00  -6.02596500e-02
C     8.834697103299998e+00   5.905496392615819e+00  -3.608994000000010e-01  1.61060779e+00   8.11094620e-01   6.37977850e-01
C     1.009099460770000e+01   6.680116314693421e+00  -2.298653999999978e-01  9.41057700e-01  -3.59848926e+00   1.74631084e+00
C     1.131250174300000e+01   5.884168079189400e+00   2.839836000000000e-01  1.55415237e+00   1.81085297e+00  -1.12683770e+00
C     1.261272308240000e+01   6.596497798397707e+00   1.432701000000000e-01 -5.49225620e-01   2.67701700e-01  -2.52738320e-01
