26
Lattice="8.88768389401873 1.33226762955019e-15 0 4.44384194700937 7.69696003302603 0 0 0 30 " PBC="1 1 1" Properties=species:S:1:pos:R:3:force:R:3 Energy="-208.45714893"
C     1.279655792648618e+01   7.046191911572338e+00  -2.253188999999978e-01 -7.75065540e-01   5.70893500e-02  -1.05957270e-01
C     8.945123706683182e+00   6.798380509476858e+00  -1.913963999999986e-01  2.03610816e+00   1.30893960e-01   1.79705560e-01
C     1.038844953034327e+01   6.418740732950758e+00  -2.447711999999989e-01 -1.65335584e+00  -4.80187970e-01   3.27942020e-01
C     1.068285956864069e+01   4.998125443228107e+00  -2.412884999999996e-01  7.05708130e-01   1.78493577e+00  -1.31652280e-01
C     6.600971439356240e+00   6.226618837881936e+00  -1.883313000000015e-01 -1.08904160e-01   1.08675352e+00   5.22279130e-01
C     7.913305378502665e+00   5.773452080368453e+00  -1.440780000000004e-01  2.29511188e+00   1.87639441e+00  -1.01471962e+00
C     8.260490306028277e+00   4.419108232260905e+00  -2.911472999999987e-01  1.14957029e+00   2.82642770e-01   1.12901808e+00
C     9.643440182164216e+00   4.028169703258766e+00  -2.132252999999977e-01  6.46610860e-01   9.21110760e-01  -4.78232570e-01
C     1.006181092494044e+01   2.689985006977400e+00  -1.748513999999979e-01 -1.71849815e+00  -1.24601875e+00  -2.24088980e-01
C     4.230370402436220e+00   5.683083304169828e+00  -2.769353999999993e-01 -7.57065490e-01  -1.60368141e+00  -6.51038200e-02
C     5.595901795737491e+00   5.290188438836864e+00  -2.765765999999985e-01 -1.93120481e+00  -2.67249794e+00   8.03743110e-01
C     5.876152331552389e+00   3.844436724926640e+00  -1.818393000000000e-01  1.69417885e+00   2.53613395e+00  -1.58638912e+00
C     7.248019932459591e+00   3.462428747738510e+00  -2.666388000000026e-01 -5.97146810e-01  -4.99901830e-01   2.41617230e-01
C     7.599833210243609e+00   2.101695653110059e+00  -2.596322999999998e-01  9.58044920e-01  -1.04905519e+00   5.20216930e-01
C     8.985028515278337e+00   1.714450356439115e+00  -1.685163000000003e-01  1.19739699e+00  -4.76949580e-01  -4.84423610e-01
C     3.188415804074548e+00   4.627570157716615e+00  -2.832056999999999e-01 -1.63146050e-01   2.74144402e+00   4.95085480e-01
C     3.548517024866568e+00   3.308245014718357e+00  -2.167361999999997e-01 -4.63924590e-01  -2.52257011e+00  -8.32162770e-01
C     4.887417095510704e+00   2.886684515084865e+00  -2.911812000000005e-01  7.93518900e-02   2.76266900e-02   9.63438260e-01
C     5.262317243162030e+00   1.529870327655688e+00  -2.650626000000003e-01 -2.71738347e+00  -2.08973688e+00   2.32757800e-01
C     6.570223782596294e+00   1.103863371182465e+00  -2.244813000000008e-01  2.38124118e+00  -1.06624670e-01  -2.97213380e-01
C     1.141766789990370e+01   7.423162998116837e+00  -2.153844000000014e-01 -1.05172347e+00  -2.29442520e-01  -2.27492090e-01
C     2.547052225770609e+00   2.274842001708121e+00  -2.114867999999994e-01 -1.46088652e+00   2.37052567e+00   6.11130200e-01
C     2.840542522154551e+00   9.371664593327400e-01  -1.371848999999976e-01  1.10937251e+00  -2.24197455e+00  -7.29174500e-02
C     4.204205946469929e+00   5.068476658507112e-01  -1.923971999999985e-01  3.59222220e-01   1.24376020e-01  -6.56329600e-02
C     5.085091006043521e-01   3.194012121825118e-01  -1.800806999999978e-01 -2.66998071e+00   1.12474340e+00   3.79701810e-01
C     6.267438305379835e+00   7.619805163872077e+00  -9.145559999999975e-02  1.45636771e+00   1.53971130e-01  -8.20649700e-01
