32
Lattice="9.86 0 0 4.93 8.53901048131456 0 0 0 30 " PBC="1 1 1" Properties=species:S:1:pos:R:3:force:R:3 Energy="-254.55111005"
C     1.198171867700000e+00   9.814500407319607e-01   3.801024600000000e+00 -5.80521350e-01  -3.34874714e+00  -1.16462063e+00
C     2.449925637600000e+00   1.587325367917890e+00   3.901678200000000e+00 -5.06281830e-01   3.08113607e+00   1.82042110e-01
C     3.633584226200000e+00   9.314557567835520e-01   3.609632100000000e+00  2.20806023e+00   1.34067500e-01   1.53539820e-01
C     4.887138185600000e+00   1.675234993150118e+00   3.577249200000000e+00 -4.94922480e-01  -5.59081330e-01   2.21683510e-01
C     6.100644670399999e+00   9.570119904689344e-01   3.462824400000000e+00  1.24419837e+00  -2.00295310e-01   5.94791390e-01
C     7.359772241299999e+00   1.638117366225340e+00   3.555605700000000e+00 -7.66954330e-01   6.90061860e-01  -3.11819080e-01
C     8.591889771900000e+00   8.340359794094327e-01   3.636466200000000e+00 -7.25808400e-02   3.21881109e+00  -5.45755070e-01
C     9.804255898399999e+00   1.612898508844022e+00   3.716034000000000e+00  7.03417900e-02   9.40791810e-01   1.99472354e+00
C     2.474034027800000e+00   3.047185852357046e+00   4.129850400000000e+00 -1.56383658e+00  -1.41367102e+00  -2.71100580e-01
C     3.646413663800000e+00   3.792933672199672e+00   4.012989300000000e+00  1.08255764e+00   7.27298360e-01  -1.75032000e-01
C     4.927924864400000e+00   3.069880151289952e+00   3.755888700000000e+00 -2.85068430e+00   1.35485255e+00   5.60030910e-01
C     6.095283196800000e+00   3.830150266255914e+00   3.691205400000000e+00  1.23826284e+00  -7.57789400e-01  -1.08311344e+00
C     7.290842509600000e+00   3.131333872692625e+00   3.521777700000000e+00  3.93216341e+00  -2.80392675e+00   1.25734226e+00
C     8.623647007799999e+00   3.794139380479448e+00   3.644848200000000e+00 -2.30061826e+00  -8.67797790e-01   2.88414610e-01
C     9.815762370500000e+00   3.044009425848591e+00   3.989424000000001e+00 -9.42885920e-01  -4.84617500e-02  -1.87633783e+00
C     1.105669809350000e+01   3.727932077332663e+00   4.176825300000000e+00  1.00292990e+00   1.09188578e+00  -1.34814284e+00
C     3.587497698800000e+00   5.254011819533276e+00   4.007507100000001e+00  3.42114558e+00  -8.17939320e-01  -1.77580228e+00
C     4.943721422499999e+00   5.876566395889790e+00   3.587064900000000e+00 -5.29924332e+00   1.25322256e+00   2.03611779e+00
C     6.117574783400000e+00   5.247306476163752e+00   3.572919900000000e+00  1.66140041e+00  -2.22864440e+00  -7.55364480e-01
C     7.315634542900000e+00   5.938283631155875e+00   3.293934600000000e+00  1.95246376e+00  -1.26871628e+00   1.14049391e+00
C     8.570311408399998e+00   5.189463219172232e+00   3.484283400000000e+00  6.32484850e-01   5.52029540e-01  -1.10713550e-01
C     9.829367445000001e+00   5.843013805840411e+00   3.577488600000000e+00  9.90050400e-01   1.39924294e+00   6.73782300e-01
C     1.110038657030000e+01   5.164060431505176e+00   3.925204200000000e+00 -3.07943625e+00   6.50737010e-01   2.02740250e-01
C     1.223829037120000e+01   6.012457831080501e+00   3.963168600000000e+00  1.03404165e+00  -2.82714842e+00  -4.91753600e-02
C     4.934881981800000e+00   7.262989597008746e+00   3.541492200000000e+00 -1.13330294e+00   2.92277901e+00   3.95154440e-01
C     6.121708539100000e+00   8.074522892880443e+00   3.534232200000000e+00  7.01128820e-01  -8.30376010e-01  -5.68885280e-01
C     7.357850823100000e+00   7.334889175321709e+00   3.292175400000000e+00  1.38698300e-01   2.38051974e+00   1.41761291e+00
C     8.621842775699999e+00   8.080267426790758e+00   3.428292300000000e+00 -3.05491270e-01  -2.93431743e+00  -5.19935310e-01
C     9.868427144799998e+00   7.289072858420954e+00   3.492398700000000e+00 -9.31996340e-01   1.36856064e+00  -2.99332660e-01
C     1.108877326510000e+01   8.067381376855602e+00   3.533158800000000e+00 -2.89475122e+00   4.87875850e-01   1.42968310e-01
C     1.226130203360000e+01   7.412606893815323e+00   3.751610700000000e+00  1.14371030e+00  -2.68578016e+00  -2.85131100e-01
C     1.352625084990000e+01   7.970725926309546e+00   3.648302700000000e+00  1.26986897e+00   1.33882023e+00  -1.21176600e-01
