32
Lattice="9.86 0 0 4.93 8.53901048131456 0 0 0 30 " PBC="1 1 1" Properties=species:S:1:pos:R:3:force:R:3 Energy="-252.9226005"
C     4.950166165000000e+00   8.303269235832772e+00  -2.638874999999992e-01  1.34393254e+00   4.37583925e+00   8.06885580e-01
C     1.297751705200000e+00   5.475208396369712e-01  -1.577265000000025e-01 -1.78192466e+00  -2.33105511e+00  -1.06013751e+00
C     7.460769897499999e+00   8.447078041540538e+00  -1.208123999999984e-01 -9.99055500e-01  -4.17456479e+00  -7.97040500e-02
C     3.701190400800000e+00   6.094626508786816e-01  -3.006867000000000e-01  2.72364142e+00  -3.13644370e+00   2.15140140e-01
C     9.908312570299998e+00   8.404821894279211e+00  -3.902390999999987e-01 -4.12078460e-01  -6.48563680e-01  -6.98932310e-01
C     6.197346768300001e+00   5.986279274311337e-01  -3.604620000000018e-01  6.06712940e-01  -4.08950863e+00  -1.14559126e+00
C     1.240168383290000e+01   8.484740542724046e+00  -5.267732999999986e-01 -7.38090220e-01  -2.83200718e+00   1.23590309e+00
C     8.713053839599999e+00   5.823273833753376e-01  -2.089986000000010e-01 -1.71615356e+00  -3.68282880e-01  -1.14195528e+00
C     1.213696684200000e+00   1.855367639368443e+00  -5.838341999999983e-01  2.70881331e+00   3.80745856e+00   1.10743011e+00
C     2.452852726500000e+00   2.667919297629986e+00  -7.407567000000022e-01  1.34532745e+00  -8.24442320e-01  -6.44743990e-01
C     3.699414812000000e+00   1.944347544174235e+00  -5.209092000000020e-01  8.12776910e-01   4.12128582e+00  -8.81429870e-01
C     4.996325311300000e+00   2.658060156129778e+00  -5.430546000000014e-01 -1.37580014e+00   6.67732450e-01  -2.99022620e-01
C     6.213366310300000e+00   1.925488541798422e+00  -3.942671999999980e-01 -5.71934400e-02   5.26233375e+00   1.22894584e+00
C     7.452012344100000e+00   2.659343057064294e+00  -2.180831999999988e-01 -6.07655660e-01   2.87381857e+00  -6.99929290e-01
C     8.690987159599999e+00   2.060947903058845e+00  -1.263464999999968e-01 -2.79151000e-02  -4.32700889e+00  -6.98854710e-01
C     9.920535075600000e+00   2.620632733904785e+00  -4.308599999999991e-01 -1.33498731e+00   3.36002435e+00  -7.16695230e-01
C     2.564834422700000e+00   4.092480366645871e+00  -1.122521399999997e+00 -2.13641351e+00  -1.24316447e+00   1.74298336e+00
C     3.816314429699999e+00   4.815023767069516e+00  -1.066007700000000e+00 -1.04132909e+00   1.00516935e+00   2.15541041e+00
C     5.024168028600000e+00   4.120126864706653e+00  -6.408849000000032e-01 -2.79505854e+00  -2.79304334e+00  -5.62263280e-01
C     6.178277676200000e+00   4.731718632458417e+00  -2.372000999999990e-01  1.62414670e+00   4.31223339e+00  -1.23445515e+00
C     7.455511855299999e+00   4.159326473166665e+00  -2.967803999999994e-01 -1.20604703e+00  -4.25842722e+00   7.14910170e-01
C     8.648881311399998e+00   4.831603365987799e+00  -4.959999000000010e-01  1.99527046e+00  -1.21935271e+00   3.76305060e-01
C     9.854778834199999e+00   4.055100762879567e+00  -6.757203000000018e-01  2.96126924e+00   5.89663650e-01  -5.70881360e-01
C     1.113219241600000e+01   4.782021601635678e+00  -1.006769700000000e+00 -3.43358810e-01   9.12989920e-01  -1.90894510e-01
C     3.674505543300000e+00   6.283901788135972e+00  -8.159817000000018e-01  2.83481376e+00  -1.33637136e+00  -2.04152830e-01
C     4.924582620200001e+00   6.976312301427269e+00  -5.028653999999975e-01  9.84296980e-01  -4.10820138e+00   9.24860120e-01
C     6.187245296900000e+00   6.171304688144596e+00  -2.257034999999981e-01  3.02819580e-01   2.44966377e+00  -4.43453270e-01
C     7.477122756800000e+00   6.927668974326901e+00  -1.012082999999997e-01 -4.46556490e-01   3.95425350e-01  -1.15965890e+00
C     8.752476091599998e+00   6.215781917421877e+00  -4.027913999999981e-01 -2.35434843e+00   2.50309062e+00   2.96372300e-02
C     9.944037913900001e+00   6.965703349416812e+00  -6.763149000000013e-01 -1.11045377e+00   7.47697410e-01   1.09041101e+00
C     1.114454704530000e+01   6.276869229884853e+00  -1.018939199999998e+00 -1.28131624e+00  -1.28651340e+00   1.61816612e+00
C     1.232784712430000e+01   6.997557786452033e+00  -7.786200000000001e-01  1.52191468e+00   1.59252484e+00  -8.14232820e-01
