32
Lattice="9.86 0 0 4.93 8.53901048131456 0 0 0 30 " PBC="1 1 1" Properties=species:S:1:pos:R:3:force:R:3 Energy="-253.43657125"
C     5.257856881300000e+00   8.187321855079567e+00  -4.205913000000017e-01  1.87802302e+00  -5.14474426e+00   9.77117610e-01
C     1.620992331700000e+00   2.276753802579256e-01  -1.721700000000013e-01 -3.00432850e-01  -2.92897672e+00  -2.63482893e+00
C     7.785850695799999e+00   8.033727684922139e+00  -4.066110000000016e-01  1.98603491e+00   1.04887720e-01   1.60282058e+00
C     4.154880503499999e+00   2.470012103366808e-01  -3.448343999999999e-01 -4.47003523e+00   1.11021951e+00  -9.78437070e-01
C     1.028982200070000e+01   8.072168516910899e+00  -3.463358999999997e-01 -2.57135944e+00  -2.29670490e-01  -1.05466425e+00
C     6.497763072400000e+00   2.609670181470352e-01  -4.482485999999994e-01  3.12145628e+00   1.51475389e+00   1.17810746e+00
C     1.269512724360000e+01   8.132456407212738e+00  -2.820695999999998e-01 -1.84022623e+00  -3.96166389e+00  -6.51855240e-01
C     8.959812368800000e+00   2.459788346119104e-01  -2.495790000000007e-01  2.01266250e-01   2.82567289e+00  -5.97631920e-01
C     1.557225148100000e+00   1.574466386645953e+00  -2.106314999999981e-01  1.36220674e+00   3.87069431e+00   3.49452780e-01
C     2.734428542600000e+00   2.378326527700323e+00  -3.123114000000022e-01  3.07762270e+00  -2.83371140e-01  -8.55165970e-01
C     4.010412029999999e+00   1.742204573762453e+00  -4.403531999999970e-01  1.31072183e+00  -2.82053235e+00   2.09899210e+00
C     5.256493785600000e+00   2.438615698853734e+00  -2.546573999999993e-01 -1.49096940e+00   2.28831180e-01  -1.64260417e+00
C     6.438323935800000e+00   1.704444215518845e+00  -3.940620000000017e-01  2.01819374e+00  -6.84163000e-02   1.59009304e+00
C     7.697766040699999e+00   2.405451292220777e+00  -1.187336999999999e-01  2.70108610e-01  -3.67805899e+00  -1.27608894e+00
C     8.917077452599999e+00   1.673099215848861e+00  -1.930467000000000e-01  1.24368078e+00  -3.96172000e-01   9.67696540e-01
C     1.021637722710000e+01   2.275711957910592e+00  -1.400973000000008e-01 -2.07014558e+00   2.96885244e+00  -1.63374800e-02
C     2.866530406900000e+00   3.796885782420131e+00  -4.087019999999981e-01 -2.71203230e+00   2.98818290e-01   1.91197219e+00
C     4.079379969200000e+00   4.573841380034326e+00  -2.750261999999992e-01 -8.23306030e-01  -2.62428478e+00  -5.09593240e-01
C     5.278697913999999e+00   3.895381475114729e+00  -2.368596000000025e-01 -2.84694500e-02  -3.83460267e+00  -6.04012370e-01
C     6.501066221699999e+00   4.470634032137072e+00  -3.607650000000007e-01  2.96252822e+00   3.35468171e+00   1.57473306e+00
C     7.785802086000000e+00   3.752708443190907e+00  -1.001709000000020e-01 -5.21796381e+00   2.09779904e+00  -7.69894780e-01
C     8.917355258099999e+00   4.447168148217195e+00  -4.618199999999817e-02  7.16456844e+00   2.57000003e+00  -1.68773407e+00
C     1.023626198770000e+01   3.754063840324398e+00  -1.129409999999993e-01 -1.88747884e+00  -1.72416263e+00  -2.39955400e-02
C     1.143912795490000e+01   4.437438116555444e+00  -2.696454000000017e-01  1.54288625e+00   2.99876365e+00  -4.07307320e-01
C     4.143341049700000e+00   5.935784775129009e+00  -2.626949999999972e-01 -2.99572063e+00   2.53938908e+00  -1.06450710e+00
C     5.265819817300000e+00   6.688985101758160e+00  -5.561283000000010e-01  3.78724540e+00   8.19709630e-01   2.16667519e+00
C     6.567140250900000e+00   5.928528494803314e+00  -4.199339999999978e-01 -8.23403120e-01  -4.34482720e-01  -6.65895730e-01
C     7.864985083799999e+00   6.561924369645445e+00  -3.650085000000018e-01 -2.97750055e+00   3.06251655e+00  -9.62497240e-01
C     9.084703122099999e+00   5.897395091813024e+00  -3.552615000000010e-01 -2.17530058e+00  -1.39673480e+00   1.33211908e+00
C     1.025521034410000e+01   6.670765585877193e+00  -4.032705000000014e-01  1.84252523e+00  -2.37097340e+00   9.96906010e-01
C     1.148465936430000e+01   5.922922634423195e+00  -3.142320000000005e-01  2.88129570e-01  -4.44181220e-01   3.96497520e-01
C     1.274348822650000e+01   6.623497381024524e+00  -2.260673999999980e-01 -1.67285393e+00   1.97543842e+00  -7.40131810e-01
