32
Lattice="9.86 0 0 4.93 8.53901048131456 0 0 0 30 " PBC="1 1 1" Properties=species:S:1:pos:R:3:force:R:3 Energy="-256.67738591"
C     9.922909757999998e+00   3.758180753447120e-01  -2.522808000000012e-01 -5.30557490e-01  -5.57607100e-02   4.05945100e-02
C     1.313278888100000e+00   1.071642143465494e+00  -2.029698000000018e-01 -1.08269218e+00   1.01993533e+00   2.72633070e-01
C     2.547003845200000e+00   3.641819657636160e-01  -2.638166999999996e-01 -2.87844563e+00   2.46353790e-01   5.68757900e-02
C     3.709501000400000e+00   1.104173126301045e+00  -1.451901000000007e-01  1.58852288e+00  -1.05624481e+00  -3.80658730e-01
C     4.915026751899999e+00   3.704184320676840e-01  -2.594853000000015e-01  2.94501233e+00   2.69499060e-01   3.18117530e-01
C     6.192962765800000e+00   1.073061583177584e+00  -2.410418999999990e-01 -3.58042890e-01   1.36745760e-01  -2.47630390e-01
C     7.442050588899999e+00   3.861126209892952e-01  -2.207762999999971e-01 -5.36488530e-01  -1.38823170e+00  -2.82843100e-01
C     8.665384486399999e+00   1.114328571464909e+00  -2.605496999999986e-01  7.00742890e-01  -9.73143150e-01   1.98627530e-01
C     1.114616684610000e+01   2.513768640159577e+00  -2.766900000001016e-03  1.18437430e-01  -6.62614830e-01   6.71976630e-01
C     2.533066291500000e+00   3.209824883975310e+00   2.045562000000000e-01 -2.06896612e+00   3.23835970e-01  -1.08744040e+00
C     3.731869199200000e+00   2.503165323896037e+00   3.215160000000000e-02  3.82391840e-01   5.80944130e-01  -1.08736110e-01
C     4.940816863699999e+00   3.224362207757091e+00  -1.111871999999998e-01  2.09675980e+00  -7.26177420e-01   5.42684500e-02
C     6.206463965199999e+00   2.494595060637680e+00  -2.891976000000014e-01 -1.27923336e+00   6.58808270e-01   3.28460380e-01
C     7.423094837500001e+00   3.217527242208479e+00  -3.566067000000004e-01  5.44465290e-01   1.66960621e+00   7.74977770e-01
C     8.657878314900000e+00   2.534924038623777e+00  -2.625659999999996e-01  8.95638900e-01  -1.86144090e-01   5.76769600e-01
C     9.905140608300000e+00   3.237537559367311e+00   5.361600000000000e-03 -5.44221510e-01  -5.88224070e-01  -1.41433737e+00
C     1.232577110130000e+01   4.641449080899831e+00   1.890909000000000e-01  1.94137376e+00  -4.92605300e-01   3.00540200e-02
C     3.715863263999999e+00   5.333379189461523e+00   3.294840000000000e-02  8.76284180e-01   6.89741720e-01   9.02040800e-02
C     5.002609680900000e+00   4.639657254940708e+00  -7.768469999999894e-02 -2.50879171e+00  -2.64720570e-01  -5.16595640e-01
C     6.194251122699999e+00   5.341686195026782e+00  -3.384254999999996e-01  8.05935110e-01   7.03491100e-01   4.64706420e-01
C     7.455885253499999e+00   4.701951044194404e+00  -3.158904000000007e-01 -8.72486910e-01  -2.85440546e+00  -5.28413890e-01
C     8.679396729600001e+00   5.388819056563343e+00  -2.658707999999983e-01  7.93245900e-02  -1.56079600e-02   2.96450700e-01
C     9.900611318699999e+00   4.659931085962953e+00  -3.473879999999951e-02 -1.20452883e+00  -5.05800480e-01   2.26943700e-01
C     1.109972461920000e+01   5.343586893369525e+00   1.234962000000000e-01  9.31373140e-01   3.17769070e-01  -6.51546250e-01
C     1.358410814670000e+01   6.771857223147816e+00  -8.192099999999769e-02  9.71464480e-01  -9.10166000e-01  -2.98551890e-01
C     4.971488957300000e+00   7.473988119019021e+00  -2.427600000000005e-01 -3.90073100e-01   4.87810660e-01  -2.90936610e-01
C     6.193197828200000e+00   6.754738471107827e+00  -4.070081999999999e-01 -8.87529180e-01   8.57308410e-01   8.30244530e-01
C     7.394789538300000e+00   7.492909200001025e+00  -4.018425000000008e-01  2.28922593e+00  -1.48533580e-01   1.72145900e-01
C     8.657965329400000e+00   6.814333079148795e+00  -3.268319999999996e-01  7.42275790e-01  -9.44906780e-01  -1.09373360e-01
C     9.938465929300001e+00   7.483383079909537e+00  -2.784987000000001e-01 -2.28564674e+00   2.65792320e-01   5.91048120e-01
C     1.113958199300000e+01   6.736365082258011e+00  -6.581159999999997e-02 -2.47592070e-01   1.61003421e+00  -4.75012550e-01
C     1.236598156170000e+01   7.449453663327676e+00  -1.358199000000013e-01 -2.33932090e-01   1.93561091e+00   3.96977560e-01
