32
Lattice="9.932 0 0 4.966 8.60136431038704 0 0 0 30 " PBC="1 1 1" Properties=species:S:1:pos:R:3:force:R:3 Energy="-257.96625577"
C    -4.374428426463960e-03  -3.110965025621621e-03   3.002735774972633e+00  3.30773260e-01   8.95624400e-02  -1.30233700e-02
C     1.244295394827969e+00   7.163767163119381e-01   3.003284685694366e+00 -2.66771020e-01  -2.71581300e-02  -4.23659800e-02
C     2.484803699810257e+00   1.233116804169176e-03   2.998894908248136e+00 -1.73189820e-01   1.34156100e-02   4.71396000e-02
C     3.721351970531598e+00   7.171125594284925e-01   3.002164634270065e+00  3.10784140e-01  -2.47841600e-02  -2.42176300e-02
C     4.966188702737191e+00  -3.890660449573089e-03   3.001802499039091e+00 -3.89276500e-02   2.69764420e-01  -2.06296700e-02
C     6.209532770444019e+00   7.150052257373846e-01   2.997682686881888e+00 -1.76646310e-01   8.46251100e-02   6.35710100e-02
C     7.448629098240723e+00   3.522471808884559e-03   2.999143918278637e+00  6.32950300e-02  -3.20988200e-01  -1.64922700e-02
C     8.689780595060164e+00   7.149669507070259e-01   2.998199830775476e+00 -3.13783600e-02   1.82203060e-01   5.33566700e-02
C     1.242141527205684e+00   2.151007905855820e+00   2.998742529936761e+00 -8.81129000e-02  -2.29364570e-01   2.83520400e-02
C     2.478967477601596e+00   2.862779332673936e+00   3.003497677134843e+00  2.74526100e-01   2.53016010e-01  -7.83376300e-02
C     3.724503266306820e+00   2.149986389139245e+00   3.000679495174324e+00 -4.54140200e-02   2.34631100e-02   3.56495800e-02
C     4.966542581856222e+00   2.868966665935163e+00   3.000910496319380e+00 -1.98088900e-02  -3.67416500e-02  -1.03532700e-02
C     6.207170689269674e+00   2.149617537353170e+00   3.003056987287950e+00 -5.38322900e-02   2.49029900e-02  -7.28188100e-02
C     7.446257911060544e+00   2.869613044778335e+00   2.997153390807574e+00  1.03942440e-01  -2.21407270e-01   6.11006700e-02
C     8.688542374592426e+00   2.151365986221434e+00   3.002148156485937e+00  8.23519800e-02  -6.07396600e-02  -9.22393200e-02
C     9.933495902035204e+00   2.865249791802682e+00   2.995455113357706e+00 -1.32545940e-01   4.79026400e-02   6.75498200e-02
C     2.483249550940030e+00   4.298897312466603e+00   2.997310460698877e+00  1.08490390e-01   4.70995500e-02   7.91192500e-02
C     3.728095535687233e+00   5.020920517800722e+00   3.004642906303201e+00 -1.96640030e-01  -3.16347850e-01  -1.23841210e-01
C     4.968729211262276e+00   4.304238814891057e+00   2.996947094877611e+00 -4.28863800e-02  -5.84479700e-02   1.04582260e-01
C     6.208449250435632e+00   5.022087472131004e+00   3.003643444040899e+00  9.85043400e-02  -2.65777870e-01  -9.48809000e-02
C     7.448835442503456e+00   4.297569041984688e+00   2.998066317592864e+00 -3.26714300e-02   2.65159650e-01   4.72821500e-02
C     8.689676940685695e+00   5.014943557945410e+00   3.002701410341172e+00  9.53335300e-02   8.17738900e-02  -7.36526200e-02
C     9.934624412375792e+00   4.297521421854816e+00   2.999322376814857e+00 -1.11695740e-01   1.33584160e-01  -5.38888000e-03
C     1.117571282289598e+01   5.017799723527473e+00   2.999208469425814e+00 -2.92904400e-02  -1.25744790e-01  -1.55265100e-02
C     3.724661971470555e+00   6.448411763040352e+00   2.997510708818734e+00  9.55001600e-02   1.65871490e-01   8.72241600e-02
C     4.966796778609554e+00   7.165445073798091e+00   3.003506440810661e+00 -1.81449500e-02   2.15304800e-02  -5.84307100e-02
C     6.211124810127900e+00   6.449987595226894e+00   2.999040075881190e+00 -1.88498410e-01   1.98504190e-01   5.93033800e-02
C     7.446386635374012e+00   7.171657353021623e+00   2.999095886494250e+00  2.17889380e-01  -1.72291790e-01  -2.43187100e-02
C     8.688503938535659e+00   6.452896177617482e+00   2.996502049063904e+00  2.48741400e-02  -9.60894400e-02   7.53620400e-02
C     9.931341595342435e+00   7.170023041411630e+00   3.001446583992910e+00  6.78639200e-02  -2.60781100e-01  -3.31808700e-02
C     1.117613142234164e+01   6.448579331333296e+00   2.999713014969436e+00 -8.08784400e-02   1.79130990e-01   1.38180900e-02
C     1.241793630942803e+01   7.165783769973318e+00   3.000125828862769e+00 -1.46795790e-01   1.35154650e-01  -2.37123600e-02
