26
Lattice="8.88768389401873 1.33226762955019e-15 0 4.44384194700937 7.69696003302603 0 0 0 30 " PBC="1 1 1" Properties=species:S:1:pos:R:3:force:R:3 Energy="-206.61145399"
C     1.315447260044078e+01   7.502087318386056e+00  -2.813840999999968e-01  2.18940517e+00  -2.77149030e-01  -6.59927600e-02
C     9.447647307868891e+00   7.385506775714067e+00  -2.396111999999988e-01  1.44115740e-01  -2.87230770e+00  -6.00783980e-01
C     1.077462752797461e+01   7.003831999925634e+00  -3.672018000000001e-01 -6.28763240e-01  -4.81410246e+00   2.62064480e-01
C     1.106873427406027e+01   5.584736167082506e+00  -3.528359999999999e-01  3.11580389e+00  -5.90846680e-01   7.74134260e-01
C     7.056685609147623e+00   6.698951949505321e+00  -1.075791000000024e-01 -5.40950380e-01   3.26926715e+00  -9.11302460e-01
C     8.474511779033016e+00   6.433390510915057e+00  -2.756378999999995e-01 -3.79102703e+00  -5.27824410e+00   9.95740350e-01
C     8.765267868271998e+00   4.983281163083849e+00  -2.870480999999998e-01  7.51605440e-01   8.54669100e-02   5.02030160e-01
C     1.014948308394206e+01   4.559554815867515e+00  -2.206641000000005e-01 -3.25113024e+00   2.20291191e+00  -7.84059570e-01
C     1.041299851100127e+01   3.211409868459328e+00  -1.611729000000004e-01  2.37422335e+00  -1.79147694e+00  -2.42722880e-01
C     4.624854562701587e+00   6.115698716585608e+00  -3.549030000000002e-01  1.57586470e-01   2.72987410e-01   1.58421815e+00
C     5.997376697101527e+00   5.753178133710233e+00  -1.854309000000001e-01  1.58494716e+00  -2.31876025e+00  -7.37320830e-01
C     6.404421686465019e+00   4.294876988288696e+00  -2.553434999999986e-01 -3.39689340e-01   2.28516073e+00   4.86635470e-01
C     7.794949068582476e+00   3.922661853346734e+00  -2.396151000000017e-01 -1.31743074e+00   2.32421229e+00  -5.04384350e-01
C     8.133176232827257e+00   2.563148034156635e+00  -2.856093000000008e-01 -2.15027555e+00  -4.08416900e-01   2.15611190e-01
C     9.470864734445513e+00   2.206244769680754e+00  -2.364779999999982e-01 -1.27337510e+00  -7.80483460e-01   5.60827890e-01
C     3.580683820384183e+00   5.094422571981039e+00  -2.788950000000021e-01 -2.34186210e-01   3.72493307e+00  -1.34270760e+00
C     3.933414973751219e+00   3.778759103777853e+00  -3.046707000000026e-01  9.81289210e-01  -3.37370419e+00   1.24094351e+00
C     5.395082043984907e+00   3.338047336076115e+00  -2.491275000000002e-01 -3.00511283e+00  -3.12070570e-01  -7.55080120e-01
C     5.699915113569996e+00   1.926162092358692e+00  -2.963592000000013e-01 -1.06593272e+00   1.62668489e+00   7.71779720e-01
C     7.058680757547870e+00   1.591557382907322e+00  -2.894244000000015e-01  8.08210150e-01  -1.41451103e+00  -3.03425720e-01
C     7.355873529657695e+00   1.500791751449550e-01  -3.356268000000000e-01  2.60684812e+00   5.04663070e+00   2.07370800e-01
C     2.858066636281338e+00   2.738806362630088e+00  -1.752026999999998e-01  3.29019042e+00   4.33789882e+00  -7.60053710e-01
C     3.285078651943985e+00   1.450300540318353e+00  -2.030595000000019e-01 -1.64889927e+00  -3.65892081e+00   9.40391210e-01
C     4.615400507792932e+00   9.390872357082265e-01  -2.004105000000003e-01  7.93859860e-01   7.14895830e+00  -5.42694750e-01
C     9.173615795238148e-01   8.365416378333405e-01  -1.531227000000008e-01 -4.00925010e+00  -8.85358710e-01  -7.69511780e-01
C     2.203110945310181e+00   4.775741256470133e-01  -1.046331000000009e-01  4.45793775e+00  -3.54875936e+00  -2.21706690e-01
