26
Lattice="8.88768389401873 1.33226762955019e-15 0 4.44384194700937 7.69696003302603 0 0 0 30 " PBC="1 1 1" Properties=species:S:1:pos:R:3:force:R:3 Energy="-209.11030423"
C     4.132085105231184e-01   4.794082342525620e-01   3.311736900000000e+00 -1.12467766e+00  -2.43362640e-01   2.38007180e-01
C     7.230523685080589e+00   7.600981093574708e+00   3.283349700000000e+00  1.23373499e+00  -1.68166970e-01   3.79140200e-01
C     4.183510307835131e+00   3.211333360676630e-01   3.366864600000000e+00 -7.46392660e-01   1.01214400e-02  -4.85013740e-01
C     9.651855754245968e+00   7.045360024132296e+00   3.478879500000000e+00 -2.23252470e-01  -1.38824066e+00  -6.49091320e-01
C     1.103111817526747e+01   7.413510086604012e+00   3.446455200000000e+00 -1.01493160e+00   3.70446210e-01  -1.28523240e-01
C     1.201201349519245e+01   6.400065906708369e+00   3.380943300000000e+00 -8.55591200e-02  -4.33506130e-01   5.91951680e-01
C     4.467677562199686e+00   6.781962508884866e+00   3.326000100000000e+00  1.87105778e+00   6.90106630e-01  -1.00032680e-01
C     5.509970468925482e+00   5.800631200778388e+00   3.313288500000000e+00  5.97376040e-01   6.32137780e-01   1.18458230e-01
C     6.904354706412835e+00   6.209519810266489e+00   3.332691600000000e+00 -8.83312270e-01   6.42766310e-01  -3.69695900e-01
C     7.949827893085520e+00   5.259791758225589e+00   3.339074100000000e+00 -7.30922810e-01  -1.43570268e+00   5.68312530e-01
C     9.300328569193233e+00   5.614966362448333e+00   3.427106700000000e+00  9.54850560e-01   1.71346246e+00   1.53404360e-01
C     1.033181916272551e+01   4.631302644543963e+00   3.438308400000000e+00 -1.15427545e+00  -9.65101130e-01  -1.49414930e-01
C     1.167339220481064e+01   4.996481988322501e+00   3.443298600000000e+00  7.46019620e-01   1.23919906e+00  -6.31790700e-01
C     3.806462452894388e+00   4.021826407589242e+00   3.348559500000000e+00  1.00697900e-01   6.63310900e-02   6.92388200e-02
C     5.170231818944657e+00   4.427277092910344e+00   3.332488500000000e+00 -4.79029300e-02   3.63744880e-01   2.71818670e-01
C     6.199701130987798e+00   3.473701330550446e+00   3.396037500000000e+00  1.54202383e+00  -4.33779580e-01  -6.67108760e-01
C     7.599873250405452e+00   3.865710891540759e+00   3.382448400000000e+00 -5.41064670e-01  -3.00299130e-01  -7.99614200e-02
C     8.624369370017073e+00   2.859749619216682e+00   3.372307200000000e+00 -2.37053570e-01   2.49671800e-01   2.62615080e-01
C     9.997012688460083e+00   3.225717439580694e+00   3.363571200000000e+00 -2.60128580e-01   1.08939761e+00  -2.68331610e-01
C     2.123382689409615e+00   2.246093317208869e+00   3.239501400000000e+00 -2.05926750e-01   2.98929820e-01   7.34239450e-01
C     3.487585018969229e+00   2.634060896609028e+00   3.285921900000000e+00 -8.37239290e-01   1.81820684e+00  -2.69740670e-01
C     4.524901089398124e+00   1.731211025691642e+00   3.269810400000000e+00 -2.22784500e-01  -3.14998200e+00   6.49661850e-01
C     5.867570516163741e+00   2.089956942398705e+00   3.344350800000000e+00  1.48896521e+00   4.17384660e-01   4.00104970e-01
C     6.919476919487160e+00   1.112851034439896e+00   3.409201800000000e+00 -6.26859650e-01  -7.49303630e-01   1.18483600e-02
C     8.281053827210654e+00   1.477706028322770e+00   3.408777300000000e+00  1.62110560e-01   2.29668780e-01  -6.16014900e-01
C     1.764033987069156e+00   8.816355096827001e-01   3.249645300000000e+00  2.45447490e-01  -5.64130840e-01  -3.40814800e-02
