32
Lattice="9.86 0 0 4.93 8.53901048131456 0 0 0 30 " PBC="1 1 1" Properties=species:S:1:pos:R:3:force:R:3 Energy="-253.78880484"
C     9.868353244099998e+00   1.731433807503400e-01   4.388028900000000e+00 -5.51908859e+00   1.22966675e+00   2.43540140e-01
C     1.140614167000000e+00   9.379346455951473e-01   4.514950200000000e+00  1.95934975e+00   1.78805144e+00  -4.39381490e-01
C     2.361706837200000e+00   2.701643863350432e-01   4.315734600000000e+00  2.81259965e+00   1.47468547e+00   5.54690600e-02
C     3.642224790699999e+00   1.094992750743892e+00   4.245349200000000e+00 -2.11959415e+00  -2.54461981e+00   6.56831080e-01
C     4.872220054900001e+00   3.671017096170424e-01   4.202420700000000e+00 -2.39369635e+00  -1.78348900e+00   1.24641852e+00
C     6.073262217900000e+00   1.002787320119385e+00   4.384136700000000e+00  1.71377571e+00   1.94163409e+00  -1.24967344e+00
C     7.321767019199999e+00   2.926580185216688e-01   4.306485600000000e+00 -1.94719634e+00  -3.89142618e+00   1.34299759e+00
C     8.505270805800000e+00   8.691214926201808e-01   4.390961400000000e+00  5.09431000e+00   5.43879768e+00   1.45261190e+00
C     1.102593957700000e+01   2.413583077290986e+00   4.620599400000000e+00  1.37808846e+00  -1.95843374e+00   1.41288640e-01
C     2.388172358999999e+00   3.206462648598809e+00   4.630801800000000e+00 -7.28713170e-01  -4.97607022e+00  -4.24320900e-01
C     3.605821128400000e+00   2.469014917722953e+00   4.434794700000000e+00  5.23814350e-01   5.95599670e-01  -5.72977500e-02
C     4.863643038099999e+00   3.157744605156741e+00   4.364949599999999e+00 -1.07494049e+00  -1.55036567e+00   2.02214880e-01
C     6.067572110500000e+00   2.445123876471276e+00   4.335457800000000e+00  1.61804558e+00  -7.27312450e-01  -4.50476600e-02
C     7.342120869300000e+00   3.167042733668413e+00   4.295361900000001e+00 -6.98650640e-01  -4.30725051e+00   2.00483708e+00
C     8.523875984899998e+00   2.488801085856685e+00   4.616060700000000e+00  1.26612129e+00  -5.50136036e+00  -2.54107943e+00
C     9.826389232000000e+00   3.059774061606662e+00   4.582886100000000e+00 -2.61456504e+00   3.13656283e+00  -1.59631910e-01
C     1.221895624230000e+01   4.548467454222692e+00   4.652299800000000e+00  1.53240428e+00   3.53812217e+00  -1.11181706e+00
C     3.606157255800000e+00   5.253216496097170e+00   4.367479200000000e+00  1.70686920e-01  -2.20675292e+00   5.69076680e-01
C     4.829740907100000e+00   4.526392062769377e+00   4.314725100000000e+00  1.89673608e+00   2.45010531e+00  -1.17761424e+00
C     6.130427342699999e+00   5.216552461409089e+00   4.063784100000000e+00 -1.37762039e+00  -7.88388010e-01   2.14090804e+00
C     7.385778730799999e+00   4.495835469937011e+00   4.273340399999999e+00 -3.57770720e+00   3.95107432e+00  -2.26597893e+00
C     8.540408049700000e+00   5.211468846909925e+00   4.174894800000001e+00  4.13090624e+00   8.19381980e-01   1.39292206e+00
C     9.814504333099999e+00   4.505096112192676e+00   4.401508199999999e+00 -2.13227840e-01   1.22976700e+00   6.19946750e-01
C     1.102417976420000e+01   5.281157675409616e+00   4.561137300000000e+00 -2.26720551e+00   6.97071870e-01  -7.10633590e-01
C     1.347849251020000e+01   6.617204557251288e+00   4.211882100000000e+00 -3.35248040e-01   1.52411114e+00   1.73318636e+00
C     4.850168855100000e+00   7.315622947536103e+00   4.257681300000000e+00  1.71782707e+00  -1.11876910e-01  -9.24118440e-01
C     6.089491383500000e+00   6.610061077254035e+00   4.141335900000000e+00  1.34804552e+00   1.83293724e+00   1.11719320e-01
C     7.353716229300000e+00   7.417261252257657e+00   4.204460699999999e+00 -1.27219882e+00  -2.75881508e+00  -5.28851320e-01
C     8.583687878799999e+00   6.642250328890176e+00   4.178741700000000e+00 -9.97789630e-01   2.17658356e+00   3.53669610e-01
C     9.750479014699998e+00   7.462663341760027e+00   4.333788299999999e+00  1.32575480e+00  -9.74278050e-01  -1.03920865e+00
C     1.100277473950000e+01   6.776038776579873e+00   4.445684400000000e+00 -1.00110830e-01  -3.67145327e+00   5.82608720e-01
C     1.228084943430000e+01   7.320037786734473e+00   4.458035400000000e+00 -1.25091266e+00   3.92773964e+00  -2.17559163e+00
