32
Lattice="9.86 0 0 4.93 8.53901048131456 0 0 0 30 " PBC="1 1 1" Properties=species:S:1:pos:R:3:force:R:3 Energy="-256.48647007"
C     4.950742580600000e+00   8.391946688887362e+00  -6.110088000000005e-01 -4.31818790e-01  -7.40121120e-01   6.18278830e-01
C     1.254366127600000e+00   5.164699234879184e-01  -6.637665000000013e-01  6.56388950e-01   1.87846461e+00   1.50445305e+00
C     7.428493729800000e+00   8.373590207278296e+00  -5.759864999999991e-01  4.42644650e-01  -8.70927390e-01   9.73308700e-02
C     3.737587111800000e+00   5.422614923021295e-01  -3.959714999999981e-01 -4.65957370e-01   1.25211527e+00  -1.47405913e+00
C     9.909258982399999e+00   8.393690867168006e+00  -4.784870999999988e-01 -2.09717540e-01  -4.45587420e-01   6.34394560e-01
C     6.214529593099999e+00   5.972032789226505e-01  -5.376957000000004e-01 -1.50966775e+00  -8.80681530e-01   6.31658210e-01
C     1.236777208840000e+01   8.478690739189071e+00  -4.294724999999993e-01 -5.83890520e-01  -3.56476684e+00   1.37062330e-01
C     8.649401377100000e+00   6.008707839238104e-01  -5.025539999999999e-01  1.15004189e+00  -1.67307762e+00  -8.58218840e-01
C     1.245751199100000e+00   1.960502071150823e+00  -4.262762999999978e-01 -2.58455830e-01  -3.18198980e-01  -1.30717653e+00
C     2.470596585300000e+00   2.703844110180813e+00  -3.931130999999972e-01  6.72280880e-01  -1.05710088e+00   1.13177709e+00
C     3.727867567500000e+00   2.015422937195668e+00  -3.865061999999995e-01 -1.06066071e+00  -2.55154591e+00  -6.40588600e-02
C     4.941510416100000e+00   2.679201379836582e+00  -3.976157999999970e-01  7.69722940e-01   1.72462508e+00  -7.62782250e-01
C     6.179097929600000e+00   1.989908800831952e+00  -5.744535000000006e-01 -3.62691120e-01   4.90713310e-01   7.43622620e-01
C     7.410517175000000e+00   2.670797883452899e+00  -5.607569999999988e-01 -6.06223110e-01   1.60806226e+00  -5.75841190e-01
C     8.611028081199999e+00   1.969175912606302e+00  -5.839815000000002e-01  2.01818166e+00   1.79807153e+00   6.40722930e-01
C     9.865254985599998e+00   2.673717371136011e+00  -4.522197000000006e-01  6.63146680e-01  -1.57346830e-01   4.33053100e-02
C     2.506245661800000e+00   4.084266094734426e+00  -1.699991999999995e-01 -5.71629390e-01   1.53993006e+00  -3.41250000e-03
C     3.757573430400000e+00   4.838472658358540e+00  -1.691786999999998e-01 -1.72792869e+00  -4.71624120e-01  -1.50962750e+00
C     4.938636374000000e+00   4.124013480716729e+00  -3.986435999999998e-01  1.89164943e+00  -2.95859140e-01   4.03034450e-01
C     6.208281113900000e+00   4.836768186476626e+00  -5.357100000000017e-01 -1.28050289e+00  -9.35442170e-01   2.03018010e-01
C     7.430103424100000e+00   4.110602367027155e+00  -5.968164000000016e-01  3.19864200e-02  -3.32794610e-01   6.26347730e-01
C     8.662344500500000e+00   4.806603107274769e+00  -4.909710000000018e-01  6.66293560e-01   1.46771900e-01  -3.49001830e-01
C     9.919884710000000e+00   4.091591028704380e+00  -3.324962999999990e-01 -2.40878600e+00  -2.76809910e-01  -3.12932430e-01
C     1.110333663300000e+01   4.779450164019731e+00  -1.279311000000014e-01  2.02732578e+00   2.06053188e+00  -3.22925320e-01
C     3.717526991100000e+00   6.249401453313419e+00  -3.883127999999978e-01  2.21975900e-02   1.12865931e+00   1.79756886e+00
C     4.959338725799999e+00   6.961397041041643e+00  -4.841115000000009e-01 -5.58242650e-01   2.91053490e-01  -6.08368640e-01
C     6.192349769600000e+00   6.248174824457966e+00  -5.197097999999976e-01  1.52533130e-01  -9.21942800e-02  -6.24916070e-01
C     7.436031206799999e+00   6.920341478653803e+00  -6.136125000000021e-01 -4.31972980e-01   1.88719316e+00   8.13703600e-02
C     8.659869886999999e+00   6.233179468154039e+00  -5.872496999999974e-01  6.30004650e-01  -5.08828290e-01   1.32437480e+00
C     9.882489230299999e+00   6.951924460545865e+00  -3.843272999999989e-01  7.10039520e-01   3.07244210e-01  -1.53191200e-01
C     1.111306086080000e+01   6.255197306676718e+00  -1.327232999999985e-01  1.80528050e-01   8.76577000e-03  -1.18111960e+00
C     1.235480101190000e+01   7.019088730597143e+00  -2.514453000000003e-01 -2.16820460e-01  -9.49294820e-01  -5.10688100e-01
