72
Lattice="7.395 0 0 3.6975 6.40425786098592 0 0 0 13.6 " PBC="1 1 1" Properties=species:S:1:pos:R:3:force:R:3 Energy="-579.30986389"
C     3.369380152500000e-02   2.133841080631260e-02   1.352938472000000e+01 -2.76446070e-01  -1.40738295e+00   1.75851170e-01
C     1.310255232825000e+00   6.774292677021870e-01   1.357990600000000e+01 -2.19807508e+00   1.86788119e+00  -6.32687830e-01
C     1.229891623275000e+00   7.770330250917235e-01   3.446448624000000e+00  1.36184805e+00  -2.19580960e+00  -7.94578950e-01
C     2.467102447800000e+00   1.466662147846896e+00   3.434498440000000e+00 -2.04203900e-01   3.28387120e-01  -5.16199290e-01
C     6.218959765049999e+00   6.391593183911536e+00   1.356106360800000e+01 -1.13005857e+00   8.09748820e-01   1.68887150e-01
C     3.732058868625000e+00   7.331697506679546e-01   1.352892898400000e+01 -1.77490419e+00  -1.11359306e+00  -4.69912510e-01
C     3.670512280275000e+00   7.230474368647530e-01   3.403050072000000e+00 -2.47106410e-01   2.55559100e-01   1.81825210e-01
C     4.891638277275000e+00   1.383699662378834e+00   3.437919248000000e+00  1.30729357e+00   9.82181850e-01  -2.57710180e-01
C     8.584153677524998e+00   6.379466785696205e+00   1.356986580000000e+01  1.48139751e+00   7.68632550e-01  -1.84404040e-01
C     6.122775995025000e+00   5.891206999003326e-01   1.359842416800000e+01  2.34939568e+00   4.53704648e+00  -3.76119490e-01
C     6.165967675725000e+00   6.669178311914118e-01   3.439820664000000e+00 -1.58126790e-01   1.77618941e+00  -3.01788270e-01
C     7.405851164174999e+00   1.428744906633244e+00   3.384678784000000e+00 -9.49522090e-01  -1.18682464e+00   4.17278120e-01
C     1.276173859350000e+00   2.105399131049214e+00   1.353145164800000e+01 -1.62202123e+00   1.86542991e+00   7.47156860e-01
C     2.488428074850000e+00   2.846530206790670e+00   1.355988884000000e+01 -1.09427019e+00   1.09775787e+00  -1.38695871e+00
C     2.485982030700000e+00   2.881847767611213e+00   3.371516976000000e+00 -1.79136721e+00   1.45545928e+00   5.09402720e-01
C     3.684520222050000e+00   3.628472287659820e+00   3.485003808000000e+00  1.22773133e+00  -2.31297720e+00  -1.02777768e+00
C     3.713952248100000e+00   2.117646505695521e+00   1.340303487200000e+01 -7.50084650e-01   1.14060764e+00   2.51091386e+00
C     4.918884489225000e+00   2.777794395903127e+00   7.653631200000001e-02  4.09241210e-01   2.50311686e+00  -1.65553640e+00
C     4.859801914875000e+00   2.816632505354468e+00   3.434293624000000e+00  2.96739366e+00   5.77803680e-01   8.26770770e-01
C     6.185919126900000e+00   3.460024551467484e+00   3.480746872000000e+00 -1.88187699e+00   3.11866428e+00  -8.45404940e-01
C     6.115795410824999e+00   2.058168049544607e+00   2.421112800000000e-02  2.20089987e+00   9.79422750e-01   3.58987200e-01
C     7.362964970925000e+00   2.886912062599165e+00   1.358848732800000e+01  9.35905410e-01  -2.72192328e+00   1.89588710e-01
C     7.435938128400000e+00   2.818621475718048e+00   3.378160440000000e+00 -1.54048275e+00   1.21883959e+00   6.02179100e-02
C     8.599831484250000e+00   3.614685841764598e+00   3.325395976000000e+00  1.77511461e+00  -1.10633786e+00   1.40775603e+00
C     9.797921464649999e+00   4.323109219848620e+00   1.351755340000000e+01  2.73289414e+00  -1.67172615e+00  -9.09764600e-02
C     3.710390002650000e+00   5.025453548286771e+00   1.347295016000000e+01 -7.13386580e-01  -2.33106262e+00   1.10719221e+00
C     3.752055762074999e+00   5.028317596444342e+00   3.433947232000000e+00 -7.17894600e-01  -6.35244610e-01   6.67753400e-02
C     4.970602383075000e+00   5.734877207405947e+00   3.386021784000000e+00  4.27860910e-01  -7.30395890e-01   7.76939940e-01
C     4.936612152975000e+00   4.254018613075631e+00   3.383163200000000e-02 -9.33211080e-01  -1.25599130e-01  -3.86809840e-01
C     6.147780893400000e+00   4.996211450727698e+00   3.448592800000000e-02 -9.44398900e-02  -6.97914810e-01   4.59613900e-02
C     6.199712946449999e+00   4.945838120104082e+00   3.431914032000000e+00 -8.39654220e-01   3.46244940e-01  -3.04053300e-01
C     7.402269691724999e+00   5.739085701416068e+00   3.384082424000000e+00 -9.26199110e-01  -2.10583740e+00   1.09314444e+00
C     7.371578371125000e+00   4.334067993770915e+00   2.281495200000000e-02 -6.04205200e-01  -3.83345108e+00  -4.02838890e-01
C     8.570831437125001e+00   5.011306222461139e+00   1.352537163200000e+01  1.11448926e+00  -1.65219928e+00   5.97039200e-01
C     8.613719294250000e+00   5.040105209418880e+00   3.523026688000000e+00  8.27989000e-01  -2.02686218e+00  -1.95621660e+00
C     9.891120131999999e+00   5.657415723269311e+00   3.449181816000000e+00 -6.45003130e-01   2.22948111e+00   4.54750100e-01
C     1.682761830000000e-02   3.714853814271600e-03   6.878887888000000e+00  2.53315500e-02   2.96199030e-01   4.99332760e-01
C     1.248342628950000e+00   7.545593955371472e-01   6.852958127999999e+00 -8.77215450e-01  -1.50633459e+00  -3.18513300e-01
C     1.259041345200000e+00   6.683328519655789e-01   1.019814808800000e+01 -2.62285637e+00   1.26813661e+00   1.42033800e-01
C     2.451996792225000e+00   1.370544163967979e+00   1.015315507200000e+01  2.06580310e-01   1.50518040e+00   8.15945240e-01
C     2.468068641525000e+00   5.327119326268741e-02   6.721352152000000e+00  2.36083130e-01  -1.50123712e+00   7.90763450e-01
C     3.751880315700000e+00   6.547801614822469e-01   6.683108136000000e+00 -2.17230340e-01   1.21428368e+00   3.94907400e-01
C     3.646037899200000e+00   6.752403564082177e-01   1.031349390400000e+01  2.30854637e+00   1.00572639e+00  -1.56148635e+00
C     4.923235300499999e+00   1.403602110487777e+00   1.018436326400000e+01 -4.01792990e-01   3.56378530e-01   1.56642504e+00
C     5.027260765499999e+00   6.535160890658401e-03   6.813496776000001e+00 -1.92514040e+00  -1.63821590e-01   3.69864730e-01
C     6.220552722000000e+00   7.735362362575848e-01   6.952686519999999e+00 -4.84610300e-01  -1.03030862e+00  -1.73184840e+00
C     6.191812313325000e+00   7.288048646808930e-01   1.026698326400000e+01 -1.30194104e+00  -2.61220650e-01  -9.92052990e-01
C     7.387818974325000e+00   1.496106171656296e+00   1.020445332000000e+01  1.63189867e+00  -3.57111309e+00  -3.09434080e-01
C     8.607029592375000e+00   2.146190859360749e+00   6.878983904000000e+00  3.19360830e-01  -1.97912300e-02  -1.23065017e+00
C     2.459204476875000e+00   2.759620649118333e+00   6.714571600000000e+00  5.83942700e-01   2.04348615e+00   1.22814262e+00
C     2.469856197900000e+00   2.809537548284267e+00   1.015779090400000e+01  3.53391400e-02   1.01561202e+00   1.85128100e-02
C     3.685101210225000e+00   3.578351476923623e+00   1.013671226400000e+01  2.05418020e-01  -2.19008848e+00   3.91869990e-01
C     3.695215277775000e+00   2.062468636782754e+00   6.682843072000000e+00  8.61030690e-01   1.51843099e+00   3.58108720e-01
C     4.906265143574999e+00   2.855742027253916e+00   6.774654496000000e+00  7.64217180e-01  -8.31866680e-01  -3.03519340e-01
C     4.926074869575000e+00   2.862158581289007e+00   1.021518181600000e+01 -1.90581010e-01  -1.81217565e+00  -9.88010150e-01
C     6.166909798724999e+00   3.530954973438492e+00   1.016713981600000e+01 -4.89598750e-01   7.43154640e-01   1.06485610e-01
C     6.189912057150000e+00   2.200426661942309e+00   6.775958600000000e+00 -1.18179758e+00  -1.60436563e+00   1.04238332e+00
C     7.401719688600000e+00   2.876305394774012e+00   6.795100192000000e+00 -6.85373900e-01   2.02779369e+00   2.15695620e-01
C     7.414947420899999e+00   2.883673237271627e+00   1.012260675200000e+01 -1.21840180e-01  -7.00139220e-01   1.04789611e+00
C     8.660584367249999e+00   3.555522539142975e+00   1.023187391200000e+01 -7.07260970e-01   8.05545410e-01  -6.91504730e-01
C     2.466961129350000e+00   4.192097572976913e+00   6.852914879999999e+00 -1.12765073e+00   1.59945258e+00  -7.65820030e-01
C     3.656849093400000e+00   4.962872933671053e+00   6.840559688000000e+00  1.12917443e+00  -3.34490800e-02   3.02224370e-01
C     3.685409470800000e+00   4.968165284281400e+00   1.012060129600000e+01  1.70776100e-02   1.87074420e-01   8.49326050e-01
C     4.926649682924999e+00   5.647300774362648e+00   1.023666750400000e+01 -8.13014270e-01   1.10501482e+00  -8.01464650e-01
C     4.914964399724999e+00   4.256502440444054e+00   6.843683064000000e+00 -1.23356690e+00   1.30156608e+00  -3.82174760e-01
C     6.108696099900000e+00   5.037504568387091e+00   6.824629328000000e+00  5.63060050e-01  -9.70095750e-01  -7.64035580e-01
C     6.123838656525000e+00   4.936502569378981e+00   1.021676866400000e+01  1.02965612e+00   7.49567340e-01   3.22234330e-01
C     7.326407418675000e+00   5.690943229975404e+00   1.029367258400000e+01  1.84930558e+00  -1.52140047e+00   1.65229960e-01
C     7.328414680500000e+00   4.337920347001441e+00   6.757087512000000e+00  2.45343667e+00  -1.07066418e+00   7.10960260e-01
C     8.622712094924999e+00   4.996712711990400e+00   6.843566647999999e+00  7.78863000e-01  -1.25007427e+00  -3.68515150e-01
C     8.609571290849999e+00   4.998331388164514e+00   1.030568247200000e+01  6.17321210e-01  -6.28888960e-01  -8.50370950e-01
C     9.873183263700000e+00   5.669168689208825e+00   1.019976431200000e+01 -1.23411411e+00   1.91134549e+00   6.56374250e-01
