64
Lattice="7.10842262195238 0 0 0 7.10842262195238 0 0 0 7.10842262195238 " PBC="1 1 1" Properties=species:S:1:pos:R:3:force:R:3 Energy="-508.94006486"
C     7.061787386896132e+00   7.096710853975514e+00   8.825654031271739e-02  3.77300890e-01   2.30687250e-01  -2.18095943e+00
C     1.707384042332028e+00   1.775853932860844e+00   7.079340214871698e+00  1.96880656e+00  -1.71367840e-01   2.70085643e+00
C     2.498482599322840e-02   1.787802125021671e+00   1.839872742397695e+00 -1.25020307e+00  -1.03432803e+00  -1.46534502e+00
C     1.796785678444601e+00   7.085071949282884e+00   1.799468041720258e+00 -2.03144062e+00   1.42481965e+00  -7.28711410e-01
C     8.571352344568025e-01   8.826935679870126e-01   9.464803586095467e-01  7.62831950e-01  -5.70906200e-02  -1.39000279e+00
C     2.677831300815619e+00   2.624635633391527e+00   8.946664263743310e-01 -5.13425370e-01   1.11555119e+00  -1.54113273e+00
C     9.206291580673929e-01   2.653004068551876e+00   2.605025485741281e+00  8.07071680e-01   1.93914552e+00   1.58258598e+00
C     2.654969263069401e+00   8.501480815266997e-01   2.672688001628918e+00  9.77992650e-01   6.73160800e-02   4.30287180e-01
C     3.600131933377878e+00   9.502041768832599e-03   3.597956542803480e-02 -1.95094559e+00   1.23253800e-01  -3.63378690e-01
C     5.420033988930041e+00   1.876357858842464e+00   1.830511234144060e-02 -2.13784261e+00  -4.39939914e+00  -2.61236790e-01
C     3.546751731302572e+00   1.761403433769325e+00   1.777192164503285e+00 -1.05276990e-01  -4.44319700e-02   4.69923910e-01
C     5.256513043411406e+00   7.091771921939138e+00   1.800006149312592e+00  1.90211061e+00   2.02486879e+00  -8.89795030e-01
C     4.446813450445482e+00   8.962969563549066e-01   8.374883362616108e-01  1.11298569e+00   1.58692395e+00   3.21869355e+00
C     6.283069071992991e+00   2.664828574159115e+00   9.346888360832645e-01 -1.62486836e+00   8.44365570e-01   8.26662260e-01
C     4.390974302817466e+00   2.669375405603772e+00   2.720918649105618e+00  1.90414711e+00  -5.61124170e-01  -1.49188621e+00
C     6.207067452277154e+00   9.110408200479534e-01   2.711966799247573e+00 -9.42847970e-01  -1.03885942e+00  -1.40857665e+00
C     7.086340162962517e+00   3.531325814459136e+00   7.284611983059319e-02  2.43221191e+00   2.49562593e+00  -3.78780971e+00
C     1.852941079794982e+00   5.398523759913468e+00   7.004545107727154e+00 -2.91222160e+00  -1.73729423e+00   7.44744020e-01
C     5.943963476927320e-02   5.390890522451434e+00   1.843067054270444e+00 -2.27629237e+00  -2.83643530e+00  -3.17711943e+00
C     1.811772436938573e+00   3.600719160170517e+00   1.675429052538758e+00 -4.22977190e-01  -1.14335571e+00   2.44402763e+00
C     9.451470317787134e-01   4.493739346950282e+00   7.800936525116592e-01 -8.78740140e-01  -4.68500600e-02   2.81882212e+00
C     2.651946122013341e+00   6.257492967406231e+00   8.830202710906278e-01  2.28827300e-01  -2.97681000e-01  -9.43148070e-01
C     8.523143022359186e-01   6.222902387758144e+00   2.669003777269198e+00  2.85857634e+00   1.27397773e+00   1.66571116e+00
C     2.647165068043355e+00   4.476237983954485e+00   2.665334764933885e+00  7.03258400e-02  -1.04648410e-01  -6.44621610e-01
C     3.600495813531797e+00   3.488747429228729e+00   7.105070998734671e+00 -1.72613823e+00   4.95057400e-02  -1.38412807e+00
C     5.332132869748324e+00   5.281904044673142e+00   7.083097158394821e+00 -1.10756070e-01   1.74192520e+00   1.48702425e+00
C     3.458013950778481e+00   5.394383956748032e+00   1.741482363713680e+00  2.72561933e+00  -3.81378736e+00   4.83440720e-01
C     5.375616228262483e+00   3.579533643899226e+00   1.801642010610133e+00 -1.79938557e+00  -8.82984630e-01   8.05924380e-01
C     4.356751726208416e+00   4.399018549275389e+00   8.654867780245882e-01  3.58857685e+00   1.82455636e+00   8.23133720e-01
C     6.204780601636073e+00   6.256058132300383e+00   9.927055068124662e-01 -1.70917220e-01  -2.61287535e+00  -2.16178607e+00
C     4.382578260524079e+00   6.191288886587540e+00   2.606734705960260e+00  3.72724470e-01   1.04912588e+00   1.33055932e+00
C     6.291886501579292e+00   4.435147604831122e+00   2.736609923365458e+00 -1.69678791e+00   2.25632696e+00  -3.84962891e+00
C     7.067832602744859e+00   3.967281748448200e-03   3.529751369933032e+00  1.16783106e+00   3.78419300e-02   1.93051673e+00
C     1.790870404561368e+00   1.755707241471240e+00   3.555431612911175e+00  3.49461880e-01   1.57797689e+00  -1.68993721e+00
C     7.052401638921364e+00   1.766704255601285e+00   5.383397463083466e+00  2.18489867e+00   1.20505619e+00  -2.69050049e+00
C     1.781075424696365e+00   3.971902223151200e-02   5.343568686806701e+00 -1.84475359e+00  -2.40073290e-01   5.48543580e-01
C     9.188912909052551e-01   9.355316106690919e-01   4.394157809887832e+00 -2.20712711e+00  -1.74455817e+00   2.70637607e+00
C     2.645620052386899e+00   2.653177229726899e+00   4.436806639586404e+00  1.20374156e+00  -5.90444190e-01   1.52080275e+00
C     8.571866994365714e-01   2.692811235223876e+00   6.212537241314791e+00 -2.32400030e-01  -1.98906736e+00   1.19076672e+00
C     2.661327036260729e+00   8.693610105209406e-01   6.340715180651012e+00 -2.51983200e-02   3.26062420e-01  -4.40113932e+00
C     3.526228080261429e+00   7.024100236186322e+00   3.567528086767856e+00  1.28636730e-01   2.06774230e+00   3.86409220e-01
C     5.309366582454797e+00   1.719549965477705e+00   3.576763775941116e+00  8.18412190e-01   3.72116325e+00  -7.41020820e-01
C     3.590617594037913e+00   1.681332526440442e+00   5.368781550997579e+00 -3.28729340e-01   2.53318605e+00  -5.09063160e-01
C     5.346039574509413e+00   7.093791211552801e+00   5.330396921860293e+00 -1.33971746e+00  -1.39845260e-01   1.36716202e+00
C     4.476486281156602e+00   8.503300571457717e-01   4.416194630852095e+00 -1.87498909e+00  -1.23760247e+00   1.87044902e+00
C     6.269342494661093e+00   2.742363125212955e+00   4.385666088225981e+00 -2.11571368e+00  -3.29897679e+00   2.17545165e+00
C     4.551623587766073e+00   2.636282215180588e+00   6.199185846528777e+00 -2.87887357e+00   1.40136085e+00  -1.77766150e-01
C     6.175464755908932e+00   8.619868039791787e-01   6.263347748612968e+00  2.19373071e+00   1.25873444e+00  -4.00746910e-01
C     7.750604627913420e-02   3.593398053545727e+00   3.517947620919844e+00 -8.63518520e-01  -2.60872492e+00   8.64930240e-01
C     1.804983822252247e+00   5.366002157753159e+00   3.557461707327221e+00 -2.59926686e+00  -1.50097834e+00   1.05412624e+00
C     8.494422862447599e-03   5.273253236513054e+00   5.260168762996419e+00 -7.15103360e-01   1.60541074e+00   1.70589482e+00
C     1.756327593513288e+00   3.517908382426981e+00   5.328525771774030e+00  4.19355060e-01   5.33218080e-01  -3.92344180e-01
C     9.089908220485716e-01   4.401130461635791e+00   4.432433253653675e+00  8.02995000e-01   1.57602955e+00  -8.32524420e-01
C     2.572482558313112e+00   6.192323090994524e+00   4.554383361764061e+00  4.07430024e+00   6.31668990e-01  -3.62832962e+00
C     8.224508947143579e-01   6.244187493030341e+00   6.142106136985117e+00  1.81702924e+00  -1.16789870e-01   2.29340263e+00
C     2.684079817551277e+00   4.404357898757950e+00   6.141570659509152e+00  8.93310850e-01   5.13561800e-02   2.36735639e+00
C     3.535304611852228e+00   3.590033708203906e+00   3.608650667045687e+00 -2.37886840e-01  -1.01567219e+00  -2.86215343e+00
C     5.312373374138831e+00   5.383974738084436e+00   3.483671091383108e+00  4.28489090e-01  -2.26752602e+00   1.22633683e+00
C     3.568360909562015e+00   5.300037346439857e+00   5.327218817191118e+00 -3.77513860e-01   1.44673457e+00  -2.12312400e-01
C     5.326145161038593e+00   3.585780738950361e+00   5.287359616865539e+00  1.60924638e+00  -1.29772430e-01  -9.95584660e-01
C     4.453634763875861e+00   4.503465304031645e+00   4.335196145455529e+00 -7.17803250e-01  -1.12078252e+00   3.95049141e+00
C     6.149885310363540e+00   6.180728116353684e+00   4.464047821087673e+00  2.48004888e+00   1.31528789e+00  -1.83150299e+00
C     4.443114227314035e+00   6.255240663699084e+00   6.265688694350186e+00  3.91868520e-01  -2.47541494e+00  -1.95391137e+00
C     6.262831819299208e+00   4.424998412266965e+00   6.170350459086520e+00 -2.16644897e+00  -9.51140600e-02   2.01063020e+00
