64
Lattice="7.10842262195238 0 0 0 7.10842262195238 0 0 0 7.10842262195238 " PBC="1 1 1" Properties=species:S:1:pos:R:3:force:R:3 Energy="-505.65219407"
C     4.932697949738260e-02   4.949516477657180e-02   7.049286799213506e+00  3.52539180e-01  -2.31768533e+00   2.33284773e+00
C     1.782561369360850e+00   1.829102771286133e+00   6.173487334904500e-02 -2.52811830e-01  -7.45102980e-01  -1.68830947e+00
C     7.022077108024443e+00   1.893583628293284e+00   1.772956326548254e+00  2.69859936e+00  -3.74389195e+00   1.84527190e-01
C     1.753300045235203e+00   7.703397593293999e-04   1.803187594940399e+00 -1.44923940e-01   2.02637550e-01  -4.72627580e-01
C     8.545645445005058e-01   9.803620863539672e-01   8.865022608268086e-01  3.10161660e-01  -1.95689119e+00   8.87474090e-01
C     2.717695690289710e+00   2.711827189827317e+00   8.804323076673644e-01 -1.27753308e+00   1.81291420e-01   6.11890000e-02
C     9.125288972392243e-01   2.644522654102823e+00   2.705864360596756e+00 -2.72852950e+00   1.91138442e+00  -1.27507694e+00
C     2.655572554897160e+00   1.018422784672459e+00   2.627000250176070e+00  9.98101790e-01  -4.07928667e+00   1.51733403e+00
C     3.437206815843252e+00   7.029957007751392e+00   7.077953859208120e+00  3.30432162e+00   1.71372153e+00   9.53099180e-01
C     5.337443287950821e+00   1.564285168495296e+00   7.043348565125211e+00 -1.68215580e+00   5.06008448e+00   1.84247196e+00
C     3.574431289226816e+00   1.806489812668520e+00   1.737673457621205e+00  1.44378970e-01  -1.08542408e+00  -2.22529600e-01
C     5.444068205566297e+00   7.005664542121352e+00   1.855041121089609e+00 -2.98084850e+00   3.01430778e+00  -2.99433640e+00
C     4.419733843390367e+00   7.787385028233824e-01   8.590970169314702e-01  4.27514750e-01   6.25118350e-01   1.09922217e+00
C     6.139044894783813e+00   2.614445993902662e+00   8.173049654112876e-01  2.03623374e+00   6.36893820e-01  -8.65462230e-01
C     4.429222734577353e+00   2.617909643908483e+00   2.663800269742906e+00  1.06750175e+00   1.31605820e+00  -9.20156930e-01
C     6.219737504755042e+00   9.421050534027107e-01   2.704855675426978e+00 -3.20413410e-01  -1.17740323e+00  -1.59658421e+00
C     7.093025065762818e+00   3.573898015361864e+00   7.070139783474633e+00  1.32205017e+00  -1.62941367e+00   1.89853552e+00
C     1.760494266516227e+00   5.299438248581443e+00   8.305665808196119e-02 -8.02134130e-01   9.60890720e-01  -1.28233460e+00
C     7.065773932469881e+00   5.275777650638094e+00   1.821510478338390e+00 -5.43313880e-01   3.40854800e-02  -2.19235324e+00
C     1.839457112927104e+00   3.533046052733176e+00   1.864354647490559e+00 -8.71253710e-01  -2.99827290e-01  -2.61723405e+00
C     8.460040133076921e-01   4.407129330569035e+00   9.439039108309278e-01  1.44803546e+00  -1.37999400e-01   3.86806260e-01
C     2.655805213569513e+00   6.177536718934209e+00   9.332510865241435e-01 -3.42518180e-01   3.39815780e-01   1.04384480e-01
C     7.796365809371932e-01   6.121317270696021e+00   2.664574803471581e+00  3.75885264e+00   3.22392407e+00  -4.34267460e-01
C     2.813833623098126e+00   4.358028256742516e+00   2.677398824383418e+00 -4.61670084e+00   3.77257735e+00  -1.56728415e+00
C     3.506693921648991e+00   3.653509789673720e+00   7.018188729767077e+00  1.89720418e+00  -2.72827293e+00   3.39506581e+00
C     5.383934504412406e+00   5.343844706857035e+00   7.089480806244486e+00 -6.34712000e-01   2.35171467e+00  -1.33953833e+00
C     3.656644746217593e+00   5.297992608673214e+00   1.772768237685728e+00 -2.12875094e+00   1.37198844e+00   7.20829390e-01
C     5.341636119949001e+00   3.532067080769950e+00   1.604858480957279e+00 -2.95708448e+00   8.80759070e-01   4.79190672e+00
C     4.476319801898841e+00   4.534781317715602e+00   7.917255198658962e-01 -4.24066170e-01  -3.47934850e+00   1.12093744e+00
C     6.274446981860287e+00   6.230476696396659e+00   8.212786447400938e-01 -1.87223410e-01  -6.36335720e-01   2.94243278e+00
C     4.515499223769269e+00   6.175216885212172e+00   2.695543286373647e+00 -7.59333290e-01   1.33793692e+00   8.37464330e-01
C     6.123989042421975e+00   4.384632097071676e+00   2.706302168345922e+00  1.98549670e+00   2.45783980e-01  -2.49112192e+00
C     1.980605577765360e-02   7.010582291058320e-02   3.491006770274270e+00  5.11683720e-01  -2.50865962e+00   2.15602935e+00
C     1.767552219335625e+00   1.809895031440405e+00   3.557669060015047e+00  1.59182203e+00   1.11308076e+00  -1.57349960e-01
C     5.214255461293840e-02   1.758825848643087e+00   5.354780304215644e+00 -1.07564450e+00   9.56910640e-01  -1.52762581e+00
C     1.709258959882279e+00   1.531140015502760e-02   5.206148305295730e+00  2.14657507e+00  -8.41125950e-01   4.64938267e+00
C     9.435020006159929e-01   9.083926482850986e-01   4.375365415175792e+00 -2.55100850e+00   5.58293250e-01   8.80335000e-01
C     2.675430857581071e+00   2.811666407209740e+00   4.450076927270325e+00  1.89186760e-01  -5.51364112e+00  -5.69902780e-01
C     9.294570370349445e-01   2.705017960715392e+00   6.238351691312000e+00 -6.96654140e-01  -1.21317500e+00  -3.86099950e-01
C     2.565114322846350e+00   8.401262718958928e-01   6.243860789926726e+00  1.35491777e+00   2.11617652e+00  -1.67112514e+00
C     3.637885974344544e+00   7.511192954071820e-02   3.595449046724275e+00 -2.27848608e+00  -1.39546645e+00  -1.55747420e+00
C     5.298739632806349e+00   1.759116369875566e+00   3.607939042857198e+00 -3.25914110e-01   3.34680070e-01  -1.95096493e+00
C     3.525269793808027e+00   1.810080632355013e+00   5.318395700866721e+00 -3.18136430e-01  -8.67365940e-01   9.04484730e-01
C     5.448546867238028e+00   6.033095988159499e-02   5.275726683247909e+00 -2.39925472e+00  -2.79543429e+00   2.10004434e+00
C     4.525509233418527e+00   9.359000402134864e-01   4.543165915448570e+00 -3.42191385e+00  -1.14626315e+00  -3.52596872e+00
C     6.080480875512873e+00   2.591945348362445e+00   4.480219909053530e+00  5.26327016e+00   3.13423476e+00   1.10400784e+00
C     4.344926865180047e+00   2.619983028618285e+00   6.219604932673178e+00  2.99712981e+00   1.58025669e+00   1.21652255e+00
C     6.304275771363690e+00   8.195437631154566e-01   6.175482455881255e+00 -7.92508280e-01   2.34507563e+00   3.85223360e-01
C     6.993168503829201e+00   3.471501542941895e+00   3.548333070998617e+00  1.44285543e+00   8.88371800e-01   1.73161844e+00
C     1.689232756256084e+00   5.212685708326665e+00   3.481845079780483e+00  2.53755986e+00   2.48276986e+00   2.31867541e+00
C     3.270976210706100e-02   5.352650407546013e+00   5.382506706644953e+00 -2.86345730e-01  -1.16801661e+00  -2.50255430e+00
C     1.815348613274469e+00   3.561559784051878e+00   5.358994959071267e+00 -2.66627970e+00   1.74698354e+00  -7.97783800e-01
C     7.950165773705038e-01   4.353792987461294e+00   4.437993532911265e+00  2.16042118e+00   1.69606935e+00   3.64331830e-01
C     2.626222446572990e+00   6.298303061425687e+00   4.420971206515830e+00  1.39097608e+00  -2.36552110e+00  -1.50834211e+00
C     8.993412094261477e-01   6.204419849188108e+00   6.210240723218948e+00  9.89759710e-01   1.06714401e+00   5.04264720e-01
C     2.614688035692873e+00   4.501981207557042e+00   6.240832672974832e+00  6.21974520e-01   5.00068110e-01  -1.33308713e+00
C     3.603774146959914e+00   3.569688549654752e+00   3.550729391348045e+00  9.49237170e-01  -1.23155126e+00   1.91874584e+00
C     5.334976665301681e+00   5.320142524641359e+00   3.621928276404906e+00  4.11285910e-01  -9.45380130e-01   7.04961900e-02
C     3.525692602785465e+00   5.433960241853335e+00   5.328706538961256e+00 -2.37742480e-01  -2.27439645e+00  -3.99250150e-01
C     5.330742604452304e+00   3.569062510874609e+00   5.465165435228648e+00 -1.17233803e+00  -1.62103861e+00  -3.66535944e+00
C     4.434439819190850e+00   4.418791124382502e+00   4.526374968209416e+00  6.17887290e-01   2.31319740e+00  -8.71627160e-01
C     6.322816954420341e+00   6.250400823074030e+00   4.463833786482584e+00 -2.65286078e+00  -2.42383810e-01  -1.37857121e+00
C     4.448164761585544e+00   6.276317989778098e+00   6.172356384865658e+00  4.84523140e-01  -1.14377068e+00   5.45391550e-01
C     6.293579301342018e+00   4.479691895421317e+00   6.237937625694385e+00 -2.88165827e+00  -7.13425270e-01  -1.71655180e-01
