64
Lattice="7.10842262195238 0 0 0 7.10842262195238 0 0 0 7.10842262195238 " PBC="1 1 1" Properties=species:S:1:pos:R:3:force:R:3 Energy="-513.20222363"
C     7.100874541440953e+00   5.912174610970680e-02   7.090234156873754e+00  3.85387420e-01  -1.96755482e+00   7.98556570e-01
C     1.763719215690468e+00   1.768760722265251e+00   2.892061742947000e-03  8.68285480e-01  -6.30009090e-01  -1.37830360e-01
C     7.096631097473717e+00   1.814464183332089e+00   1.751458252934361e+00  6.71012880e-01  -1.24930293e+00   1.67855750e+00
C     1.758968941190427e+00   1.081418550025840e-02   1.795830875118283e+00  1.01427186e+00  -6.39032360e-01  -1.01072096e+00
C     8.930432180690541e-01   9.027261691935656e-01   9.045897132676247e-01 -7.13642380e-01   9.43452000e-03  -2.33849090e-01
C     2.675079985840548e+00   2.635289666130157e+00   8.674333484748490e-01 -3.80279750e-01   1.42948841e+00   3.30527280e-01
C     9.166695534153741e-01   2.685040734121049e+00   2.699477371788459e+00 -1.93256971e+00  -9.75909020e-01  -8.13815540e-01
C     2.679234929946164e+00   8.794346405526474e-01   2.648090300331575e+00 -1.18946212e+00   5.25136860e-01   1.21670349e+00
C     3.541516662379847e+00   7.372429436106800e-03   7.039729809337820e+00  5.21369920e-01  -5.71289970e-01   2.72023149e+00
C     5.314303666301292e+00   1.770658600020565e+00   1.539648797378900e-02  2.80451640e-01  -6.24803400e-01  -4.94637580e-01
C     3.562492338015395e+00   1.772554274164866e+00   1.777449702654808e+00  9.31848500e-02  -6.53835850e-01  -2.97260990e-01
C     5.360859356156041e+00   7.095091626386904e+00   1.793670625484064e+00 -1.20708068e+00   4.17039340e-01   8.21456300e-02
C     4.458796047371791e+00   8.441651354601244e-01   9.196703029401810e-01 -7.86891290e-01   1.26999157e+00  -1.59750868e+00
C     6.208234797439809e+00   2.628246640998261e+00   8.666250497387288e-01  1.90740460e-01   2.22917861e+00   1.87277400e-01
C     4.454105554705984e+00   2.643655497627409e+00   2.648903788216208e+00 -2.31698770e-01   1.46918781e+00   7.20429960e-01
C     6.216828453882033e+00   9.074679846706889e-01   2.664929442676093e+00  1.12037852e+00  -6.93261310e-01   2.21358010e-01
C     1.355839205270940e-02   3.521833369060841e+00   7.088832518101541e+00 -8.23888120e-01   1.00626427e+00   6.74076440e-01
C     1.730165825986866e+00   5.309327272877709e+00   4.100458046233900e-02  1.10602624e+00   3.57523870e-01  -1.50406882e+00
C     1.724290074933400e-02   5.333078218872557e+00   1.779479868155080e+00 -1.32282980e+00  -3.67086750e-01   4.41714880e-01
C     1.745197509711796e+00   3.554489391492894e+00   1.792175084449043e+00  1.81476161e+00  -5.71369870e-01   5.08387200e-02
C     8.567400772433568e-01   4.406680718017487e+00   9.198322328074646e-01  8.28330860e-01   7.07593810e-01  -6.67857830e-01
C     2.657635490225711e+00   6.231794455781954e+00   8.266121653161059e-01 -1.93290000e-01  -5.38008250e-01   2.40579190e+00
C     8.931564552413906e-01   6.203707229820453e+00   2.706632354576620e+00  5.26133950e-01   5.53021860e-01  -1.96493228e+00
C     2.649832859052641e+00   4.412195005780726e+00   2.691481320435900e+00  5.18524400e-01   1.83922733e+00  -1.43460318e+00
C     3.546203671918570e+00   3.558003298046639e+00   7.046773900733109e+00  4.01697700e-01   4.98012450e-01   2.04305486e+00
C     5.354409386723332e+00   5.326210985032054e+00   1.109255133005760e-02 -6.99419270e-01   1.02959002e+00  -1.32705749e+00
C     3.592272861329207e+00   5.347377166393818e+00   1.766298293585457e+00 -1.75094264e+00   3.50001700e-02   2.01311040e-01
C     5.344263037528222e+00   3.582295123918644e+00   1.759408739297927e+00 -6.59426160e-01  -1.58012016e+00   5.68277300e-02
C     4.465908806129589e+00   4.486035167430499e+00   8.752828952372103e-01 -6.44849470e-01  -1.83846044e+00   5.12329300e-02
C     6.202107905815179e+00   6.229768910756386e+00   8.733398789982594e-01  1.54911619e+00   1.95705830e-01   7.84616630e-01
C     4.441104534070909e+00   6.238197154204242e+00   2.693371307842106e+00  4.81502710e-01  -6.58970880e-01  -5.09039160e-01
C     6.204061442519608e+00   4.419683373589764e+00   2.670505218294994e+00  6.07165520e-01   1.13454789e+00  -5.30689200e-02
C     4.459227244287920e-02   7.087282597633477e+00   3.552827086863207e+00 -2.15459423e+00   1.40074674e+00   2.58453500e-01
C     1.760210711537915e+00   1.773156926234590e+00   3.577385549667688e+00  9.85272300e-01   1.23517070e-01  -5.28247880e-01
C     7.083952088383328e+00   1.831264229352197e+00   5.327028169296449e+00  8.26165620e-01  -2.36348874e+00   4.01974880e-01
C     1.779972979432229e+00   7.077474893691985e+00   5.275444123448764e+00 -3.03923110e-01   1.22781191e+00   3.24455403e+00
C     8.444457049009358e-01   8.893052540343269e-01   4.490032873227761e+00  1.89059497e+00  -3.56844000e-03  -2.03517532e+00
C     2.693150093730171e+00   2.689844179622288e+00   4.420553160181548e+00 -1.37830240e+00  -1.17567355e+00   1.48578686e+00
C     8.939799660019176e-01   2.641516786513729e+00   6.216229711444750e+00 -2.78070580e-01   7.38265300e-01   3.70371490e-01
C     2.669157745703147e+00   8.819016186229184e-01   6.225527954737068e+00 -5.40793200e-01   8.17464230e-01  -1.72272271e+00
C     3.527578680559230e+00   2.969685717957400e-03   3.563760551695029e+00  1.61673332e+00   5.38178110e-01  -5.92686140e-01
C     5.345333850311699e+00   1.784249548648874e+00   3.583895656355763e+00 -6.52024260e-01  -6.39433390e-01  -1.32198832e+00
C     3.573794943233874e+00   1.803568535308605e+00   5.327992782245983e+00 -8.06855790e-01  -7.61954490e-01   1.96279790e-01
C     5.343031361140855e+00   6.993337257782199e-03   5.321511464669519e+00  4.16351020e-01  -5.55925500e-01   3.73390170e-01
C     4.444930216040767e+00   8.923702636996186e-01   4.482587724628252e+00  5.21285800e-02   1.48942130e-01  -1.48999139e+00
C     6.219939526125902e+00   2.678273586871035e+00   4.434127332932474e+00 -3.77303920e-01  -6.15560470e-01   7.73346950e-01
C     4.453733144444922e+00   2.676045949390380e+00   6.204934356817343e+00 -5.05383380e-01  -1.04741823e+00   1.09393210e+00
C     6.245733930371322e+00   9.071537923908850e-01   6.208352726171076e+00 -1.82387357e+00   4.43154870e-01   1.33813260e-01
C     7.087087542516784e+00   3.535850254372540e+00   3.584190869147171e+00  6.64509330e-01   1.22235702e+00  -1.40116473e+00
C     1.756344227222218e+00   5.333543322964584e+00   3.571576759955303e+00  1.25327331e+00  -1.08960337e+00  -4.14604780e-01
C     2.429729935742200e-02   5.326269629518669e+00   5.302689712172057e+00 -1.29716650e+00   5.33450430e-01   1.40265832e+00
C     1.751275139967670e+00   3.529582118390450e+00   5.367983630558484e+00  1.07682307e+00   1.05204966e+00  -2.20564914e+00
C     8.559710880843252e-01   4.441859022047796e+00   4.441039918509293e+00  1.32412896e+00  -6.20596990e-01   7.33013870e-01
C     2.693391922267704e+00   6.221658555968097e+00   4.423997475277842e+00 -1.87467234e+00  -1.66059000e-01  -1.49234540e-01
C     8.593862586478780e-01   6.213582037271479e+00   6.249506938929566e+00  1.13099758e+00   1.09647520e-01  -1.45631315e+00
C     2.639913410707562e+00   4.440856947711054e+00   6.196681335987072e+00 -1.10306430e-01   4.65179080e-01   6.66120810e-01
C     3.547997269114048e+00   3.570666881859943e+00   3.560464376126135e+00  8.20810490e-01  -5.97682270e-01  -3.91932230e-01
C     5.340745079173585e+00   5.341076829257259e+00   3.573849393751143e+00 -2.36976810e-01  -9.73296010e-01  -4.72126720e-01
C     3.549785037402978e+00   5.365276885393240e+00   5.296370537715555e+00  2.36931960e-01  -1.66708776e+00   1.59072713e+00
C     5.335088125368362e+00   3.492085686659534e+00   5.350695662409739e+00  4.75157370e-01   3.51914777e+00  -7.17875990e-01
C     4.458227231393738e+00   4.437265132845394e+00   4.478879189463171e+00 -4.03381600e-01   1.59999100e-01  -1.18312522e+00
C     6.258642896933468e+00   6.199977227219061e+00   4.411985378397662e+00 -1.06846157e+00   1.00353177e+00   1.00580172e+00
C     4.424447083008558e+00   6.225709646019235e+00   6.214822599187121e+00  1.29615024e+00  -1.25017310e-01  -7.13750490e-01
C     6.248167498855279e+00   4.476928851548923e+00   6.204094567769017e+00 -6.65225780e-01  -2.21792050e+00   4.16992020e-01
