64
Lattice="7.10842262195238 0 0 0 7.10842262195238 0 0 0 7.10842262195238 " PBC="1 1 1" Properties=species:S:1:pos:R:3:force:R:3 Energy="-510.39800947"
C     7.074897095313068e+00   7.068912372140837e+00   7.105657088179689e+00  1.05493350e-01   1.40989983e+00  -7.68975210e-01
C     1.794964500569357e+00   1.840044481888194e+00   7.028160851523770e+00 -2.05902834e+00  -1.49631921e+00   2.10948083e+00
C     3.389288796793380e-02   1.681105838843090e+00   1.824824709300739e+00 -2.46541280e-01   2.35649074e+00  -2.11756251e+00
C     1.832826234138715e+00   1.151663982356680e-02   1.749576724551074e+00 -2.09291443e+00  -4.66452580e-01  -2.02501796e+00
C     8.719621245260509e-01   8.538694118524960e-01   7.825150655929359e-01  1.35448771e+00   1.19036306e+00   3.25420890e+00
C     2.606898981607008e+00   2.665848348468180e+00   9.240347322604086e-01  1.43335451e+00   3.31656380e-01  -1.62658522e+00
C     9.353214856964446e-01   2.625817764073234e+00   2.675186398927169e+00 -2.02524591e+00  -3.06036120e-01   9.03882560e-01
C     2.643990304332811e+00   8.945239735850262e-01   2.625812432756268e+00  4.39439170e-01  -8.10568260e-01   2.05790441e+00
C     3.619184354189360e+00   2.630358055769080e-02   7.091114535015240e+00 -1.02787678e+00   6.67272030e-01   4.57732010e-01
C     5.391974272564079e+00   1.789590319815958e+00   7.101694000400586e+00 -2.19396710e+00   2.58059350e-01   1.86411234e+00
C     3.494008941483601e+00   1.795937927962940e+00   1.785041640181420e+00  2.59658794e+00  -4.30242130e-01  -4.63682110e-01
C     5.344916230482774e+00   7.061292569597555e+00   1.735694686016475e+00 -2.17572920e-01   1.16681088e+00   1.41437492e+00
C     4.505953891706681e+00   9.240995610747029e-01   8.941683392013475e-01 -1.87134281e+00  -1.02441794e+00  -6.47900180e-01
C     6.237229840054111e+00   2.599313441660754e+00   9.783958255730490e-01 -5.05801400e-02   2.52121764e+00  -2.21376713e+00
C     4.409832095017611e+00   2.668022317358055e+00   2.687406559337437e+00  1.52796900e-01   6.96739850e-01  -1.34074691e+00
C     6.226288698125860e+00   8.503988666767334e-01   2.662027073720347e+00  7.96507620e-01  -6.52846220e-01   3.95395250e-01
C     7.090845339050621e+00   3.533771822682678e+00   7.108326371957725e+00  3.00093020e-01  -9.20333900e-02   8.22957930e-01
C     1.823347365827624e+00   5.249423884616707e+00   7.076259495592416e+00 -1.61020020e+00   4.07580753e+00   2.04244097e+00
C     4.448095454464999e-03   5.292197040626902e+00   1.726117934725907e+00  6.66598440e-01   1.62846599e+00   1.42136696e+00
C     1.770245245245212e+00   3.514672059776548e+00   1.810679232623843e+00 -1.52055208e+00   1.09115976e+00  -8.38900560e-01
C     8.743869496501854e-01   4.437796842857370e+00   8.764561403906412e-01  1.35790999e+00  -1.80890280e+00  -1.96529040e-01
C     2.748581502236705e+00   6.254088601645060e+00   8.611959208784776e-01 -2.07976819e+00  -1.94906077e+00   9.46780040e-01
C     9.044277834003411e-01   6.235213251641044e+00   2.626832988991822e+00 -2.80692700e-02   1.09951942e+00   2.10694390e-01
C     2.593772994902273e+00   4.432645226816204e+00   2.662129221753396e+00  2.47061666e+00   9.19187010e-01   1.07449320e+00
C     3.509787720425893e+00   3.571485629977314e+00   6.096837213793040e-02  1.45846245e+00  -9.60397800e-01  -9.58961300e-01
C     5.310964626943999e+00   5.332798502442460e+00   2.346639583737020e-02 -8.27366150e-01  -2.47485130e-01  -1.35888051e+00
C     3.525326874441666e+00   5.274368974527489e+00   1.819792514759588e+00  2.56253080e-01   2.95402798e+00  -1.11990824e+00
C     5.290799311487131e+00   3.628717246512363e+00   1.823909926393771e+00  1.06926121e+00  -3.29385268e+00  -5.62959910e-01
C     4.355026227701638e+00   4.463016460049737e+00   9.244350075381408e-01  3.08609094e+00  -5.43835280e-01  -1.23969540e-01
C     6.216806346687685e+00   6.175903558837264e+00   8.318280414977571e-01 -3.35977650e-01   6.74044910e-01   2.60210554e+00
C     4.437003542892977e+00   6.213771547818528e+00   2.669502717452896e+00  2.25947030e-01  -1.00731739e+00  -3.90679300e-01
C     6.279681695361882e+00   4.457831363338030e+00   2.696352509204707e+00 -1.53362876e+00  -2.32934360e-01  -1.82751393e+00
C     9.452780400075999e-03   7.102040038413728e+00   3.622401484098719e+00 -6.43984620e-01  -1.26522229e+00  -2.13321940e+00
C     1.738566559839182e+00   1.707995153424669e+00   3.570713513112330e+00  1.42844882e+00   2.07053678e+00   2.21124360e-01
C     7.047082690611722e+00   1.748883369008719e+00   5.320548699909867e+00  2.14927856e+00   5.28291840e-01  -5.66244310e-01
C     1.822854965392736e+00   2.690083022622320e-02   5.375679635392253e+00 -2.03862492e+00  -9.29288630e-01   8.46212180e-01
C     8.834059030177628e-01   8.260000590442977e-01   4.507922995856646e+00  9.46479200e-02   1.78559607e+00  -1.58647911e+00
C     2.657823650172462e+00   2.697015227445570e+00   4.446628418204684e+00 -1.23495843e+00  -1.69115175e+00  -6.53157300e-02
C     8.662098467734946e-01   2.670846564749207e+00   6.153860695713775e+00 -5.18541720e-01   8.98350690e-01   1.32324545e+00
C     2.672144207298488e+00   9.627631957998236e-01   6.222660559220611e+00  1.27239602e+00  -2.16536407e+00  -7.49105670e-01
C     3.558756719760133e+00   3.856177102897600e-03   3.553445164210016e+00  7.38215560e-01   3.69016390e-01  -3.00472350e-01
C     5.366935920148522e+00   1.783830933640782e+00   3.487026480112427e+00 -1.63716190e+00  -5.16081900e-02   3.72755010e-01
C     3.518396304555618e+00   1.765882948451770e+00   5.276125679009569e+00  2.33701338e+00   2.02001728e+00   1.54399585e+00
C     5.298716032843251e+00   2.596472205139540e-02   5.256500461503369e+00  3.19579590e-01  -5.38381390e-01   2.33692425e+00
C     4.476939372014400e+00   9.204166162310549e-01   4.356749451513179e+00 -1.70094870e+00  -3.74751370e-01   1.68409916e+00
C     6.211808343659336e+00   2.644431097619477e+00   4.365967511798342e+00  9.27612550e-01   7.59477300e-01   2.86164200e+00
C     4.469820286760470e+00   2.728727606774819e+00   6.292028101357881e+00 -9.01939310e-01  -2.44994577e+00  -1.54588690e+00
C     6.179044628624590e+00   8.930534541976268e-01   6.204941820661095e+00  6.63665230e-01  -5.68697220e-01  -4.36258970e-01
C     4.977687156500240e-02   3.575400949156410e+00   3.568179644785205e+00 -7.31796820e-01  -4.56999510e-01  -5.21334710e-01
C     1.835871269136445e+00   5.484234987338643e+00   3.508631037897167e+00 -2.22468872e+00  -4.74277962e+00   2.29677067e+00
C     7.108408900744343e+00   5.348052040037361e+00   5.410373216084103e+00 -1.00898944e+00   4.65431870e-01  -2.50311299e+00
C     1.755393902202151e+00   3.602479561032359e+00   5.336442635298603e+00  7.77656400e-01  -7.55477770e-01  -1.48048652e+00
C     8.907771951062503e-01   4.534291405228632e+00   4.435998411934510e+00  6.56941120e-01  -1.02636323e+00   8.55606770e-01
C     2.704018729747699e+00   6.239397766784759e+00   4.537117429725439e+00 -3.48731110e-01   5.57937770e-01  -3.14470733e+00
C     8.369335949603460e-01   6.242668494200673e+00   6.270654354055614e+00  3.46683205e+00  -1.79303458e+00  -1.57287971e+00
C     2.706265559969428e+00   4.426237765750762e+00   6.225144455336718e+00 -1.96333723e+00  -3.73155550e-01  -4.49183100e-02
C     3.525120161511876e+00   3.535605653550186e+00   3.565854408661977e+00 -3.43406240e-01   1.46517470e-01  -4.92663800e-01
C     5.376675738653994e+00   5.336366433008116e+00   3.513662877017186e+00 -1.34988977e+00  -4.34019080e-01   2.36870180e+00
C     3.549957558819966e+00   5.298382292401242e+00   5.358204075970566e+00  1.48690238e+00   4.04142150e-01  -9.60258420e-01
C     5.324430538418423e+00   3.527662844283050e+00   5.351556563473247e+00  2.10535370e-01   1.14918427e+00  -1.28930264e+00
C     4.430013546593827e+00   4.356727770824187e+00   4.407999614750402e+00  7.76349860e-01   3.18910858e+00   1.46201486e+00
C     6.185398492183476e+00   6.218690078681984e+00   4.479059885566173e+00  1.43838872e+00  -2.93540520e-01  -1.00414829e+00
C     4.451448995004437e+00   6.229628377241188e+00   6.209510119542065e+00 -1.19301180e-01   5.83898000e-03  -6.04834570e-01
C     6.201481085108548e+00   4.472367163500990e+00   6.245216295036134e+00 -2.63985500e-02  -2.18553544e+00  -1.71426570e-01
