32
Lattice="9.86 0 0 4.93 8.53901048131456 0 0 0 30 " PBC="1 1 1" Properties=species:S:1:pos:R:3:force:R:3 Energy="-254.70855274"
C     4.829349120000000e-02   3.924717074838560e-02   3.574434600000000e+00 -3.27655718e+00  -2.50910203e+00   7.50246800e-02
C     1.200010560500000e+00   7.301650650077783e-01   3.678820800000000e+00  1.68301242e+00   2.08661689e+00   3.57912330e-01
C     2.374464148900000e+00   4.096684206895280e-02   3.557720700000000e+00  4.83689352e+00   3.38283550e-01  -4.68257240e-01
C     3.750792264700000e+00   7.002401027806184e-01   3.542820300000000e+00 -3.69479707e+00   9.44079720e-01   1.28687110e-01
C     9.852689598800000e+00   8.504469670267770e+00   3.387669300000000e+00  1.28574956e+00   2.15758463e+00   5.18232120e-01
C     6.110312499000000e+00   7.474300049071857e-01   3.537303600000000e+00  2.07092969e+00   7.89840010e-01  -8.47233910e-01
C     7.408536695400000e+00   3.577145192260640e-02   3.606806700000000e+00 -8.61063570e-01   3.36781700e-02  -1.20332207e+00
C     8.695265955900000e+00   7.102973493239624e-01   3.630629400000000e+00 -3.19635022e+00   1.97483425e+00   8.65421150e-01
C     1.108604948940000e+01   2.140353698534252e+00   3.862395000000000e+00 -2.17302439e+00   1.02828336e+00  -3.97761050e-01
C     2.409961973000000e+00   2.864267097799307e+00   3.835423200000000e+00  4.10492281e+00  -1.42765593e+00  -4.52014230e-01
C     3.746776779699999e+00   2.121100876995100e+00   3.658834500000000e+00 -2.32401243e+00   6.92358720e-01  -3.27148110e-01
C     4.917730018799999e+00   2.916919661100245e+00   3.456539100000000e+00 -2.52271562e+00  -1.79895562e+00   7.36907460e-01
C     6.103031973599999e+00   2.246033175355569e+00   3.435809100000000e+00  2.76053232e+00  -4.31624213e+00   1.11547683e+00
C     7.383597353700000e+00   2.848596732716935e+00   3.581300100000000e+00  8.77896500e-02   1.61205604e+00  -3.95886010e-01
C     8.622245014400001e+00   2.181596948372441e+00   3.770822100000000e+00 -8.16534820e-01  -2.49625214e+00  -1.06068618e+00
C     9.812966518200000e+00   2.880920217597823e+00   3.818397300000000e+00  2.27416543e+00   1.15613911e+00  -3.91227580e-01
C     2.515280182600000e+00   4.262703064251632e+00   3.807828900000001e+00 -1.80795586e+00   2.50958277e+00  -6.35329530e-01
C     3.739047279200000e+00   5.043536824255529e+00   3.588053700000000e+00 -3.77181701e+00  -1.64678098e+00   6.63166330e-01
C     4.844205625700000e+00   4.283075179284502e+00   3.470231400000000e+00  4.67113454e+00   2.05067904e+00  -4.27785730e-01
C     6.135686716000000e+00   4.979904972059617e+00   3.379701900000000e+00  3.26301240e-01  -1.02789844e+00  -1.96564560e-01
C     7.412099211999999e+00   4.277532080631410e+00   3.455706300000000e+00 -1.22125618e+00   8.98909700e-01   2.23450800e-01
C     8.604432382100001e+00   5.067632118637889e+00   3.491227800000000e+00  1.16339247e+00  -1.66430896e+00  -2.80517700e-02
C     9.859372854700000e+00   4.322809756751085e+00   3.623880900000000e+00  3.86339000e-01   1.53436480e-01   1.32847467e+00
C     1.113683997630000e+01   5.019990929807454e+00   3.744788400000000e+00 -1.35954997e+00   2.48267000e-02  -1.12947635e+00
C     1.352607741250000e+01   6.437985499764219e+00   3.533544600000000e+00 -3.36298150e-01   5.11392790e-01  -1.58528310e-01
C     4.873097644200000e+00   7.139950141101377e+00   3.495130500000000e+00  2.84411627e+00  -3.97508490e-01  -9.29489130e-01
C     6.133963582400000e+00   6.365352591231233e+00   3.314748000000000e+00 -1.54368700e-02   3.60532755e+00   1.28210965e+00
C     7.373908276800000e+00   7.219030258717076e+00   3.364218600000000e+00 -3.66734100e-01  -4.00909048e+00   1.80225080e-01
C     8.656811660100001e+00   6.480967462916347e+00   3.410632800000000e+00 -2.52392578e+00  -5.39612430e-01  -6.77852240e-01
C     9.897600222599999e+00   7.110244460663345e+00   3.338346300000000e+00 -2.23512310e+00   1.49184270e+00   8.42112790e-01
C     1.108556871580000e+01   6.497088516971853e+00   3.530399400000000e+00  2.30974300e-01  -5.68894051e+00   1.52763210e-01
C     1.226589511740000e+01   7.120100528119779e+00   3.480376500000000e+00  3.77689910e+00   3.46259595e+00   1.25664980e+00
