64
Lattice="7.10842262195238 0 0 0 7.10842262195238 0 0 0 7.10842262195238 " PBC="1 1 1" Properties=species:S:1:pos:R:3:force:R:3 Energy="-510.20673067"
C     7.085158245533489e+00   4.410655392525459e-02   1.618594938996620e-02  7.27411420e-01  -2.16538099e+00  -1.81690100e-01
C     1.790208397162767e+00   1.754572523968410e+00   7.046279581024114e+00 -1.32958700e-02   1.59480792e+00   3.62535739e+00
C     7.107102514835240e+00   1.787095192392112e+00   1.756459241500210e+00  1.21365857e+00   2.01731410e-01   2.38221801e+00
C     1.784756237013227e+00   4.911358465033019e-02   1.760527320681410e+00 -1.72132598e+00  -1.45341707e+00  -9.15805500e-02
C     9.047345118363942e-01   8.965759619427415e-01   9.009796297558315e-01 -1.31001962e+00   7.98519270e-01  -1.59099551e+00
C     2.636611264063668e+00   2.688534879259910e+00   9.364729790766584e-01  2.54662930e+00  -1.31196012e+00  -2.14086549e+00
C     9.618423707336288e-01   2.687790485243144e+00   2.721909349966167e+00 -3.21313200e+00  -3.13791700e-02  -2.20741906e+00
C     2.588909127808765e+00   9.291070183051358e-01   2.643355593277071e+00  2.59365457e+00  -2.56925557e+00   2.62489196e+00
C     3.567050614020471e+00   7.090341138634185e+00   5.067402558387259e-02 -1.58473760e-01   1.39171270e-01  -1.36738116e+00
C     5.339333133188574e+00   1.804986310200164e+00   6.394545061541260e-02 -6.17826730e-01  -1.74641613e+00  -1.24542944e+00
C     3.535553833149286e+00   1.733408972723014e+00   1.884668031390601e+00  8.74749990e-01   2.77128519e+00  -3.63850670e+00
C     5.295179805842480e+00   7.095161431097032e+00   1.848204951055954e+00  1.70651057e+00   1.04667450e+00  -2.46453037e+00
C     4.436827040759323e+00   8.948590646273330e-01   9.499479182478090e-01 -5.79306780e-01  -8.10813790e-01   2.10645840e-01
C     6.229003689061343e+00   2.654424971149388e+00   9.480449224282088e-01  1.21167563e+00   1.96461814e+00  -3.78433446e+00
C     4.491090037839808e+00   2.656822286677983e+00   2.678825200466347e+00 -1.32934645e+00  -3.12939490e-01  -4.74068210e-01
C     6.202277654947345e+00   9.266052800482529e-01   2.669886145769019e+00  8.99174630e-01  -2.18228025e+00   6.85161870e-01
C     8.095597702929880e-02   3.626696250877271e+00   7.077070069023775e+00 -1.65147777e+00  -2.38566830e+00  -5.53950620e-01
C     1.780405384780204e+00   5.268979510665457e+00   7.085119362461759e+00  1.73667750e-01   2.76602593e+00  -8.16525570e-01
C     7.071760290579314e+00   5.367380694151856e+00   1.714506184207684e+00  1.73098050e+00   3.69886700e-01   1.18765198e+00
C     1.787728339594876e+00   3.567015214075822e+00   1.769461541651357e+00  2.73230360e-01  -5.06043550e-01   8.94018380e-01
C     9.736502426319369e-01   4.438865665282513e+00   8.545636204055652e-01 -3.63762639e+00   2.08376650e-01   1.50133298e+00
C     2.592662659289029e+00   6.229599445961125e+00   8.326017932999442e-01  2.84601781e+00  -7.50027380e-01   2.17852990e+00
C     8.861255855121748e-01   6.284557220268488e+00   2.659689468941760e+00 -9.77975380e-01  -1.27629156e+00  -2.63593320e-01
C     2.679288811789624e+00   4.420041851342491e+00   2.649084057813851e+00 -7.49371590e-01   1.83968577e+00  -3.62139220e-01
C     3.637722622792736e+00   3.595175159200726e+00   7.100809854795111e+00 -3.47179122e+00  -1.99055732e+00   6.79298200e-02
C     5.289644050642929e+00   5.263306065319757e+00   9.879570094180799e-03  2.16396503e+00   3.01861105e+00  -1.57876457e+00
C     3.524031151166492e+00   5.319529778611516e+00   1.752419311672585e+00  8.72927170e-01   7.25093610e-01   9.22413710e-01
C     5.366810669741957e+00   3.584959218548167e+00   1.683487871263052e+00 -1.23462566e+00  -1.27232582e+00   4.84017346e+00
C     4.458411766044954e+00   4.435777908664837e+00   9.154534444735446e-01 -7.95492800e-01   1.45158230e-01  -2.21486778e+00
C     6.193571330006596e+00   6.239252683879084e+00   8.427769316066647e-01 -1.83107030e-01  -3.98901990e-01   1.56830961e+00
C     4.461538334650134e+00   6.225686330393041e+00   2.686878332452545e+00 -3.00696307e+00  -2.89869590e-01   5.77910410e-01
C     6.147721506518012e+00   4.515208631452563e+00   2.604298080854576e+00  3.39571626e+00  -1.81131736e+00   5.81425720e-01
C     7.068429212655356e+00   1.282380765915860e-02   3.614890369337296e+00  1.05175360e+00  -2.12686450e-01  -3.05799611e+00
C     1.763859180531856e+00   1.725822650850272e+00   3.588094601597397e+00 -8.55028310e-01   1.50736323e+00  -2.58315560e-01
C     7.082556278517665e+00   1.742093119385190e+00   5.328872520629434e+00  1.27278681e+00   1.08900083e+00   5.88755650e-01
C     1.772301711909178e+00   2.727658144591640e-02   5.365075219443511e+00  4.59033040e-01  -2.58393204e+00   4.25185270e-01
C     8.410330933695261e-01   8.046857381551326e-01   4.483657186811431e+00  1.57494611e+00   3.43760943e+00   8.94217300e-02
C     2.676482264370796e+00   2.644443466274836e+00   4.400106919862737e+00  4.05906450e-01  -1.09391872e+00   1.24379830e+00
C     9.267999797438147e-01   2.676854105958048e+00   6.202875757626592e+00 -4.87500020e-01  -8.33968140e-01  -8.85547300e-01
C     2.718611184038940e+00   8.842422800232319e-01   6.273366999211632e+00 -1.66072471e+00  -3.66805300e-02  -1.77988011e+00
C     3.503209657217571e+00   7.107051973950411e+00   3.599508027124521e+00  6.91040060e-01   1.58965590e-01  -1.15873357e+00
C     5.367221323316715e+00   1.742249149261699e+00   3.576383190994042e+00 -1.67042134e+00   1.89625329e+00  -1.54931880e-01
C     3.550800120153114e+00   1.766939188968876e+00   5.361668010313292e+00  3.01856150e-01   2.46313500e-01  -2.43467950e-01
C     5.310612262434726e+00   7.080512962435547e+00   5.315466177736567e+00 -3.53110970e-01   3.14015720e-01   2.81155406e+00
C     4.380183717280306e+00   8.709723477604422e-01   4.516754997709318e+00  2.11857488e+00  -2.21374880e-01  -2.47205886e+00
C     6.267402463959642e+00   2.637759132148346e+00   4.411982748281293e+00 -8.07825980e-01   6.01915950e-01   7.06189110e-01
C     4.450289824527793e+00   2.635274667358429e+00   6.210103957167739e+00  8.70389380e-01   1.06015449e+00   1.72462582e+00
C     6.202502565439041e+00   8.683561638993774e-01   6.251023023305960e+00 -3.79388990e-01   1.46664153e+00  -6.21913160e-01
C     3.184665743254059e-02   3.627108326136552e+00   3.507507267365171e+00 -8.36347630e-01  -1.63682870e+00   1.01080162e+00
C     1.773774008402232e+00   5.392101584413203e+00   3.535549994601071e+00  2.01607500e-01  -1.82351206e+00  -2.77638300e-02
C     7.092464850976135e+00   5.408131859347791e+00   5.313103053720774e+00  1.47490138e+00  -2.06396872e+00  -4.23526300e-02
C     1.864775821530793e+00   3.513458225529956e+00   5.292603429148087e+00 -3.11092685e+00   1.64788839e+00   1.11698790e-01
C     9.194165322526471e-01   4.478409464896442e+00   4.412490573993265e+00 -8.17401400e-01   1.30795530e-01   1.90299820e-01
C     2.641677223612263e+00   6.211639731874790e+00   4.456560732794705e+00  7.10710000e-01   8.53023220e-01   4.51662900e-02
C     8.799024458452696e-01   6.188525629462467e+00   6.240611885368255e+00 -3.69376500e-02   1.83863213e+00  -8.84778200e-02
C     2.662180757817391e+00   4.445680438964081e+00   6.171451411581906e+00  2.01539462e+00  -9.97048560e-01   1.25085524e+00
C     3.533895438152040e+00   3.526576606222488e+00   3.496094055090725e+00  1.28558854e+00  -2.30586670e-01   1.13248136e+00
C     5.297265772460318e+00   5.315132650547237e+00   3.549759873586904e+00  5.68849180e-01   3.16690820e-01   3.08526250e-01
C     3.559935367314755e+00   5.315538541478839e+00   5.325028570013443e+00 -7.97161180e-01  -4.66429010e-01  -6.14339350e-01
C     5.348285054130844e+00   3.464528749025484e+00   5.323494856748952e+00  2.68716500e-01   2.55961031e+00  -1.62006689e+00
C     4.408505521188267e+00   4.361254911938187e+00   4.393483789255004e+00  1.10451128e+00   1.79250092e+00   1.55362403e+00
C     6.238257931217642e+00   6.257437024120212e+00   4.476136831100602e+00 -2.32110775e+00  -1.26109351e+00  -1.97422792e+00
C     4.434311867583689e+00   6.150129413596311e+00   6.248815218324414e+00 -1.62720660e-01   1.57104289e+00  -7.85517780e-01
C     6.229911932219500e+00   4.510976134456162e+00   6.112536733823120e+00 -6.41097650e-01  -3.36101140e+00   3.73588373e+00
