72
Lattice="7.395 0 0 3.6975 6.40425786098592 0 0 0 13.6 " PBC="1 1 1" Properties=species:S:1:pos:R:3:force:R:3 Energy="-579.85693263"
C     1.105578778132500e+01   6.390562290523812e+00   1.341432532000000e+01  4.20313200e-02  -2.47032950e-01   3.08658710e-01
C     1.240277568000000e+00   6.195521321865877e-01   1.337764068000000e+01 -1.16234072e+00   2.56841423e+00   3.87923030e-01
C     1.235041538250000e+00   7.642148389423549e-01   3.405820664000000e+00 -2.48105940e-01  -4.25591050e-01   5.65791110e-01
C     2.505650844975000e+00   1.383120717468290e+00   3.388785712000000e+00 -1.11739584e+00   3.49084407e+00   6.09151590e-01
C     6.197427151950000e+00   6.365663112347339e+00   1.342475257600000e+01 -2.56490666e+00  -5.02994390e-01   2.75738480e-01
C     3.688005744375000e+00   6.457148704388382e-01   1.339378524000000e+01  5.33395270e-01   1.68217326e+00   2.11256210e-01
C     3.742910957175000e+00   7.639336279797222e-01   3.520223319999999e+00  9.08337920e-01   3.58374080e-01  -3.02361330e-01
C     4.989593889299999e+00   1.492978652330365e+00   3.558401784000000e+00 -1.00256885e+00  -2.15115700e-01  -6.22775900e-02
C     8.590871480399999e+00   6.360295319579402e+00   1.338045968800000e+01  1.09556127e+00   1.67667763e+00   6.61601860e-01
C     6.083939007975000e+00   6.926391239493727e-01   1.345672508800000e+01  2.94058852e+00  -3.06479750e-01  -4.46177200e-02
C     6.214045306875000e+00   7.428788617540291e-01   3.560873312000000e+00 -1.89971574e+00   1.32971443e+00  -2.15411410e-01
C     7.385760908850000e+00   1.486755250712332e+00   3.456470736000000e+00  2.49477689e+00   1.80584420e-01  -5.23062300e-02
C     1.224920630325000e+00   2.075435850012525e+00   1.336841212800000e+01 -2.38978530e-01   7.86099170e-01   3.75692620e-01
C     2.477221654875000e+00   2.774359151987023e+00   1.322054123200000e+01 -6.21909520e-01   8.36547320e-01   1.42439836e+00
C     2.473638407625000e+00   2.845450512958053e+00   3.460672184000000e+00  1.89688959e+00  -5.09574730e-01  -2.37152110e-01
C     3.689116362450000e+00   3.586317284977627e+00   3.532619992000000e+00  3.16312390e-01   6.83633510e-01   3.61633080e-01
C     3.708172390050000e+00   2.067586087110945e+00   1.338355940000000e+01 -1.01894489e+00   8.00805210e-01  -6.24869960e-01
C     4.893987705750000e+00   2.819413938585645e+00   1.350684367200000e+01  1.36425835e+00  -3.82636380e-01   4.75264230e-01
C     4.942274430525000e+00   2.930878829829951e+00   3.569143200000000e+00  8.27899120e-01  -1.54851050e+00  -7.15293570e-01
C     6.185575814025000e+00   3.613769200337096e+00   3.491348888000000e+00  1.17002209e+00   1.09532161e+00   3.43823340e-01
C     6.130033337100000e+00   2.074482576230064e+00   1.447135200000000e-02  8.17113200e-01   3.00088980e+00  -5.39022400e-01
C     7.408424624175000e+00   2.872330207877731e+00   1.818388000000000e-02 -3.90000080e-01  -2.37039503e+00  -1.09953044e+00
C     7.464871361700000e+00   2.909994608991070e+00   3.438889880000000e+00 -2.71002706e+00  -4.31625300e-01   2.53656510e-01
C     8.699298227549999e+00   3.589966687276569e+00   3.462580128000000e+00 -1.98847961e+00   6.46831710e-01  -3.42562870e-01
C     2.471505319875000e+00   4.219519004068969e+00   1.326403199200000e+01 -4.46000560e-01   6.75425520e-01   1.03911032e+00
C     3.671386110450000e+00   4.982086603847153e+00   1.340541976800000e+01  1.04480402e+00  -1.98667864e+00  -2.44352690e-01
C     3.677169481125000e+00   5.026625335347416e+00   3.606460920000000e+00  8.47118450e-01  -4.64056360e-01  -6.22037260e-01
C     4.894848742575000e+00   5.779048398547625e+00   3.551205344000000e+00  1.85717952e+00  -2.30684280e+00  -3.09780670e-01
C     4.932465702525000e+00   4.239023427551913e+00   1.353181748800000e+01 -5.97274240e-01   1.14438962e+00  -1.71940560e-01
C     6.187102326900000e+00   4.976933866058155e+00   1.635808000000000e-03 -1.45413033e+00  -8.25250570e-01  -6.11095750e-01
C     6.197723617499999e+00   5.048805521806847e+00   3.525494000000000e+00 -1.49309642e+00   5.48611010e-01  -6.19866700e-02
C     7.431687186600000e+00   5.779930200812368e+00   3.529007152000000e+00 -2.30021170e-01  -2.72024260e+00  -5.11490430e-01
C     7.414204962900000e+00   4.325510560375805e+00   1.358715371200000e+01  4.20568760e-01  -3.05048875e+00  -8.48157800e-02
C     8.641776367949999e+00   5.004329359905876e+00   1.341167971200000e+01  2.38203090e-01  -3.56459461e+00  -3.41043590e-01
C     8.644925935425000e+00   5.019973873134020e+00   3.474545136000000e+00  4.44446920e-01   4.63339410e-01   7.61702770e-01
C     9.864822920400000e+00   5.734313056331059e+00   3.567424160000000e+00 -3.47384800e-02  -1.53075520e-01  -2.78698050e-01
C     7.400799269925000e+00   6.100433462863741e-02   7.120213903999999e+00  6.66583360e-01  -1.74481463e+00  -1.40701475e+00
C     1.232463382425000e+00   7.449302736317442e-01   6.886745152000000e+00  9.31794410e-01  -1.37321917e+00  -2.79500270e-01
C     1.170436230000000e+00   6.626208943802449e-01   1.018418578400000e+01  3.44112996e+00  -9.42805500e-02   1.40325180e-01
C     2.448005562825000e+00   1.383989262919263e+00   1.023033969600000e+01 -1.11599698e+00  -2.82836940e-01  -4.31562480e-01
C     2.473947000975000e+00   2.691382961407140e-02   6.718729120000000e+00 -8.74084320e-01  -4.93067260e-01   4.00318830e-01
C     3.664360047000000e+00   7.716973176556644e-01   6.628243152000000e+00  6.52012430e-01  -2.69839300e-01   5.39095320e-01
C     3.665571754725000e+00   6.895362610162027e-01   1.037352389600000e+01 -2.30091800e-01  -5.52500860e-01  -2.86696870e-01
C     4.886777617724999e+00   1.403469990648125e+00   1.030927749600000e+01  1.38745560e+00  -5.24690200e-01  -8.47670510e-01
C     4.867062473775000e+00   5.889054527936580e-02   6.821186896000000e+00  2.19742581e+00  -1.11188310e+00   3.08113970e-01
C     6.156341567249999e+00   7.426280069736528e-01   6.984752872000001e+00 -1.42258412e+00  -1.34471207e+00  -2.10417120e-01
C     6.132220223475000e+00   6.280812587619571e-01   1.028950676800000e+01 -2.49239200e-02   1.20840827e+00  -1.48472180e-01
C     7.391867736824999e+00   1.354412863099897e+00   1.014884972000000e+01 -3.45113148e+00   1.32816152e+00   7.14422870e-01
C     1.283670540600000e+00   2.122978306534285e+00   6.766540328000000e+00 -1.27896399e+00   2.40777528e+00   8.44880510e-01
C     2.477138646000000e+00   2.914392156693217e+00   6.696262736000000e+00 -2.52902230e-01  -2.34581590e-01   8.18015000e-02
C     2.441699476575000e+00   2.790008596493719e+00   1.009879084000000e+01 -5.37990580e-01   3.73055000e-01   2.77154460e-01
C     3.644104328550000e+00   3.531932071060193e+00   1.004990332800000e+01  1.95268791e+00  -5.38201600e-01   6.63856360e-01
C     3.678136710150000e+00   2.187695637742415e+00   6.583196960000000e+00  1.77071799e+00   6.78329820e-01   1.00945709e+00
C     4.967389958099999e+00   2.861806026893814e+00   6.699419023999999e+00 -1.67795246e+00   6.95863670e-01   4.66050400e-01
C     4.906320569099999e+00   2.830623311118003e+00   1.009256612000000e+01 -1.11005604e+00  -9.29670310e-01   7.99014580e-01
C     6.131376749774999e+00   3.538683375653627e+00   1.017979189600000e+01  3.53069600e-02  -9.51858000e-01   2.18848450e-01
C     6.146699855325000e+00   2.127541532387271e+00   6.901673464000000e+00  1.69040255e+00   1.44994854e+00  -5.76534780e-01
C     7.435256346375000e+00   2.830282284386958e+00   6.901618928000000e+00 -7.87984580e-01  -1.07491571e+00  -5.36361010e-01
C     7.339213820850000e+00   2.820977089844114e+00   1.020005453600000e+01  1.18831866e+00  -1.98962033e+00  -5.42153180e-01
C     8.587811133599999e+00   3.483966485221623e+00   1.016290763200000e+01 -2.73754980e-01   1.03009486e+00   6.40203980e-01
C     9.869509871400000e+00   4.344146950748406e+00   6.881995488000000e+00  1.44481025e+00  -9.83340220e-01   7.42240600e-02
C     3.787928648250000e+00   4.999550630775902e+00   7.021225216000000e+00 -3.54820218e+00   1.82983830e+00  -8.33248200e-01
C     3.722129823975000e+00   4.946700453424930e+00   1.016526111200000e+01 -2.37869812e+00  -5.95441180e-01  -1.50863230e-01
C     4.932733734300000e+00   5.651898327037763e+00   1.017824884000000e+01 -4.75432930e-01  -8.15596100e-02   5.53458410e-01
C     4.977427598325000e+00   4.323234038834311e+00   6.798096136000000e+00  1.13078680e-01  -1.98968450e+00   1.68159370e-01
C     6.199699339650000e+00   5.001659937144671e+00   6.751805816000000e+00  8.55153720e-01  -2.23250430e-01   6.03161740e-01
C     6.157268752349999e+00   4.928897705297967e+00   1.030304407200000e+01 -1.18592920e+00   1.23953055e+00  -6.08550090e-01
C     7.332321089250000e+00   5.657080524412918e+00   1.044479292800000e+01  2.65189232e+00  -4.47228460e-01  -8.87243550e-01
C     7.428253577175000e+00   4.209782098503783e+00   6.826231679999999e+00 -5.24445830e-01   3.20747050e+00  -2.69766220e-01
C     8.619601868849999e+00   5.007909340049617e+00   6.871841047999999e+00 -4.61402000e-03   6.34548960e-01  -1.60118560e-01
C     8.586555203774999e+00   4.900739016041069e+00   1.034844685600000e+01  1.18198300e-02   7.41095440e-01  -3.27835660e-01
C     9.838933764899998e+00   5.603971807172138e+00   1.031932517600000e+01  1.03898390e-01   1.05482564e+00  -5.76631800e-01
