72
Lattice="7.395 0 0 3.6975 6.40425786098592 0 0 0 13.6 " PBC="1 1 1" Properties=species:S:1:pos:R:3:force:R:3 Energy="-581.92598667"
C     3.694214105700000e+00   6.344760511288400e+00   1.336663270400000e+01  5.60590670e-01   4.35941110e-01   7.13545890e-01
C     1.281708388275000e+00   6.618634628031427e-01   1.340920736800000e+01 -1.99884741e+00  -4.07571900e-02   2.13380300e-02
C     1.279617895725000e+00   8.102250127285315e-01   3.577849920000000e+00 -2.10580610e-01  -6.51675880e-01  -2.78388420e-01
C     2.486419444950000e+00   1.548072561422587e+00   3.559626600000000e+00  4.80079360e-01  -1.23865607e+00  -8.47781900e-02
C     6.216494345999999e+00   6.347315297833910e+00   1.341728672000000e+01 -2.95037849e+00   1.02669523e+00  -1.12621310e-01
C     3.699442777425000e+00   6.588729305528370e-01   1.337864531200000e+01 -2.35665940e-01   7.50122740e-01   7.94822620e-01
C     3.716251575450000e+00   8.026785554792005e-01   3.519049232000000e+00  1.73759920e-01  -1.89193440e-01   5.56645500e-02
C     4.978208029650000e+00   1.473851055379903e+00   3.479615760000000e+00 -1.42034476e+00   4.11440500e-01   8.46640220e-01
C     8.583305988674999e+00   6.364170600053066e+00   1.342939493600000e+01  1.37983586e+00  -1.31223851e+00   2.28760300e-02
C     6.119374775700000e+00   6.057276449996772e-01   1.340905314400000e+01  2.19756917e+00   1.91349670e+00  -2.11948640e-01
C     6.190513492499999e+00   7.474331216460108e-01   3.531635760000000e+00  5.56200200e-02   2.32840914e+00   4.70715000e-02
C     7.408129859474999e+00   1.457025212746904e+00   3.567040912000000e+00  1.65461346e+00   2.19862803e+00  -2.27460700e-01
C     1.229669921175000e+00   2.085402540349729e+00   1.342531996800000e+01 -4.60896240e-01   5.59242710e-01  -4.20248110e-01
C     2.448807883350000e+00   2.826101264643057e+00   1.342903970400000e+01  5.53674210e-01  -1.14678090e+00   3.72523750e-01
C     2.477056228725000e+00   2.945923200054034e+00   3.549395320000000e+00  1.55727887e+00   3.94238930e-01  -2.90228230e-01
C     3.716178475875000e+00   3.641380261504386e+00   3.493237928000000e+00  9.48542940e-01   7.02768750e-01   8.03059780e-01
C     3.684903874650000e+00   2.058003908415655e+00   1.344916988000000e+01  1.65009850e-01   2.11046939e+00  -9.01811780e-01
C     4.936906658850000e+00   2.773435722046190e+00   1.335196972800000e+01 -8.97555470e-01   3.97114280e-01   7.39696820e-01
C     4.947970909950000e+00   2.898001995722434e+00   3.582007032000000e+00  3.63396100e-02  -1.47385500e-02  -1.24626893e+00
C     6.177352204275000e+00   3.585864567989504e+00   3.552969400000000e+00  1.55918819e+00   1.61664496e+00  -7.53126000e-02
C     6.162118023600000e+00   2.042558503564379e+00   1.335926191200000e+01 -9.14310330e-01   4.66795120e-01  -3.44413000e-02
C     7.353231339150001e+00   2.794844643731540e+00   1.332674580800000e+01  1.68870855e+00  -3.04436220e-01   4.46587190e-01
C     7.466825564399999e+00   2.931280697010666e+00   3.542316112000000e+00 -2.32113854e+00  -1.60146322e+00   2.48374010e-01
C     8.680701873149999e+00   3.661547077377790e+00   3.553556784000000e+00 -1.30960291e+00  -5.05387780e-01  -2.50234950e-01
C     2.459757142200000e+00   4.243288983499567e+00   1.343683087200000e+01 -1.31773266e+00  -2.14656050e-01   1.33555980e-01
C     3.683764600950000e+00   4.932328338148412e+00   1.339955912000000e+01  2.54069980e-01   2.36483400e-02   1.43984300e-02
C     3.768274217250000e+00   5.098387798499596e+00   3.521643840000000e+00 -4.79837270e-01  -1.34056743e+00   7.89340300e-02
C     5.027696700750000e+00   5.789599477414553e+00   3.522623448000000e+00 -2.09324336e+00  -2.73420680e-01   1.73940020e-01
C     4.902730999125000e+00   4.220963036131242e+00   1.337318872000000e+01  9.60558190e-01  -3.97314640e-01   1.12309780e-01
C     6.130605488250000e+00   4.970196074448806e+00   1.338885184000000e+01  8.25214990e-01  -2.58000595e+00  -4.95291830e-01
C     6.204155233874999e+00   5.035668019360579e+00   3.525332704000000e+00  2.34468970e-01  -3.96099480e-01   2.47804960e-01
C     7.407675362774999e+00   5.775188424250246e+00   3.559427360000000e+00  1.31089836e+00  -4.11948740e-01  -5.93476080e-01
C     7.369578208500000e+00   4.236871276698061e+00   1.331261785600000e+01 -5.27388610e-01  -6.60585360e-01   1.19226370e+00
C     8.588615154974999e+00   4.952705854105410e+00   1.346203792800000e+01  6.75563460e-01  -1.10401929e+00  -9.28324860e-01
C     8.670135564374998e+00   5.059975251983052e+00   3.535204128000000e+00 -3.92439930e-01   1.29586047e+00   4.48529930e-01
C     9.903099440400000e+00   5.787670002606492e+00   3.577208952000000e+00  2.22715540e-01  -2.37336644e+00  -7.49593890e-01
C     3.870609555000000e-02   4.422485882254440e-02   6.751463640000000e+00 -3.70197080e-01   2.33274040e-01   3.50071940e-01
C     1.257648533925000e+00   7.580582337338010e-01   6.833723240000000e+00 -7.94219900e-01   8.73892700e-01  -1.35517070e-01
C     1.185434399250000e+00   6.114157787457720e-01   1.025985455200000e+01 -1.66967380e-01   1.41828757e+00  -6.79573910e-01
C     2.383111960500000e+00   1.330642755584142e+00   1.019220366400000e+01  2.25937255e+00   5.71723380e-01   4.86789000e-03
C     2.469263710499999e+00   8.869128625156800e-02   6.884846727999999e+00  1.51905043e+00  -2.09369992e+00  -9.08154400e-02
C     3.748922833350000e+00   7.384777917100585e-01   6.895721152000000e+00 -3.53177790e-01  -6.56282460e-01   1.74582740e-01
C     3.660143048250000e+00   6.216401764192621e-01   1.010141917600000e+01 -1.37601728e+00   4.78425050e-01   1.25184389e+00
C     4.878491409300000e+00   1.356674911018627e+00   1.023109531200000e+01  5.91118580e-01  -6.26670980e-01  -9.83399330e-01
C     5.001398638725000e+00   4.297634875273740e-02   6.900444840000000e+00 -4.40953670e-01   3.79742500e-02  -8.77429760e-01
C     6.233100151275000e+00   8.019103647488934e-01   6.785781880000000e+00 -1.42969930e+00  -1.58230860e+00   6.21654250e-01
C     6.139062188400000e+00   6.622381759305312e-01   1.018697405600000e+01 -9.89226750e-01  -8.12640920e-01   3.34677130e-01
C     7.367616869625000e+00   1.364617535659178e+00   1.023788946400000e+01 -3.29587660e-01  -1.20029540e-01   9.00704000e-02
C     8.621207877974999e+00   2.181686842805270e+00   6.847581775999999e+00  9.98520940e-01   2.55738440e-01   2.91383110e-01
C     2.497605602625000e+00   2.851969150863433e+00   6.931381575999999e+00 -9.88745980e-01   2.08675070e-01  -1.18146195e+00
C     2.422621190025000e+00   2.775700459753221e+00   1.023885071200000e+01  1.24607800e-01  -1.01645962e+00  -1.92695090e-01
C     3.648529940250000e+00   3.468725888536709e+00   1.026852985600000e+01  3.19707600e-01   9.64887000e-01  -4.00686280e-01
C     3.720862838625000e+00   2.123022559956098e+00   6.898044168000000e+00  5.13267510e-01   2.35944203e+00   2.75945170e-01
C     4.935959396325000e+00   2.898273856468591e+00   6.896119767999999e+00  1.71159910e-01  -1.11178986e+00  -1.78804730e-01
C     4.879187167875000e+00   2.775417135385495e+00   1.024851541600000e+01 -1.64155290e-01  -5.21152450e-01   3.32856000e-02
C     6.096849531749999e+00   3.485293063194743e+00   1.021655296800000e+01  1.27623503e+00  -8.53999550e-01   3.10771210e-01
C     6.189308847000000e+00   2.213177027000940e+00   6.841442735999999e+00 -1.10206990e-01  -9.09379800e-02  -2.01725820e-01
C     7.411419894974999e+00   2.922141116576082e+00   6.808475383999999e+00 -2.17904490e-01   5.16058240e-01   3.44019660e-01
C     7.374180708600000e+00   2.791541711782824e+00   1.024808375200000e+01 -4.84053420e-01  -1.81559680e-01  -5.31038850e-01
C     8.624388615374999e+00   3.502879219320882e+00   1.020713007200000e+01 -2.12718513e+00  -2.79720850e-01   3.37659530e-01
C     2.465860975200000e+00   4.269251844864007e+00   6.792713664000000e+00  8.07284530e-01   9.91243790e-01   8.25409320e-01
C     3.699258974700000e+00   5.030416848128272e+00   6.780477879999999e+00 -1.17253850e-01  -1.02816941e+00   3.07553240e-01
C     3.656301678525000e+00   4.906133834777175e+00   1.024215918400000e+01 -4.55677690e-01  -1.74858540e-01  -2.84054020e-01
C     4.898365693650000e+00   5.625249441571360e+00   1.022047371200000e+01 -1.46816807e+00  -1.38705557e+00   2.63827300e-01
C     4.929084671549999e+00   4.299011534543325e+00   6.879763456000000e+00  9.89537000e-02   1.49129025e+00  -3.58108950e-01
C     6.164492779949999e+00   5.050494708860001e+00   6.875476736000000e+00 -8.00930040e-01   3.21550750e-01   2.74994900e-02
C     6.087683946899999e+00   4.881107468039604e+00   1.021569535200000e+01  9.56076420e-01   1.20289043e+00  -4.06252270e-01
C     7.320178832024999e+00   5.598312172373521e+00   1.015199458400000e+01  4.72899310e-01   4.54190350e-01  -3.13588700e-02
C     7.385845285799999e+00   4.368864952470018e+00   6.847041448000000e+00  7.40203130e-01  -1.72727723e+00   7.71765400e-02
C     8.639650971000000e+00   5.009579442414347e+00   6.847380768000000e+00  8.12234540e-01   1.05357405e+00  -8.50019600e-02
C     8.554970012549999e+00   4.914830240567848e+00   1.018116590400000e+01  1.44285730e+00   4.73819900e-02  -1.06370060e-01
C     9.809292645225000e+00   5.615193283751852e+00   1.017897657600000e+01  1.46218340e-01   9.15457940e-01   1.79394940e-01
