26
Lattice="8.88768389401873 1.33226762955019e-15 0 4.44384194700937 7.69696003302603 0 0 0 30 " PBC="1 1 1" Properties=species:S:1:pos:R:3:force:R:3 Energy="-206.08859816"
C     1.283193890743495e+01   7.278742012229135e+00  -4.296557999999990e-01  4.66240668e+00  -2.37023603e+00  -5.27100350e-01
C     9.233216069205803e+00   6.922003924515498e+00  -4.421697000000009e-01 -1.15386463e+00   6.59912380e-01   8.16909130e-01
C     1.054891781842212e+01   6.489551533713152e+00  -3.388083000000002e-01 -4.45736290e-01   5.27906049e+00   2.40326210e-01
C     1.082519338215709e+01   5.199971061842029e+00  -2.781414000000026e-01  4.43050356e+00  -4.12005652e+00   1.79088200e-01
C     6.802867221879879e+00   6.458480907281650e+00  -5.430902999999994e-01 -1.07865780e-01  -3.12556534e+00   1.24572893e+00
C     8.231671192141683e+00   5.986639554434582e+00  -4.024446000000026e-01 -4.20176168e+00  -9.48334700e-01  -1.57264612e+00
C     8.469468150529879e+00   4.569466576146148e+00  -4.584930000000007e-01  2.31884132e+00   1.17946553e+00   2.15432053e+00
C     9.890044569659814e+00   4.154893299858290e+00  -1.954802999999998e-01 -2.72296487e+00   2.83448379e+00  -2.06427600e+00
C     1.020748215260845e+01   2.851914652693344e+00  -3.744861000000022e-01 -1.38676710e-01  -3.15467111e+00  -1.09772709e+00
C     4.325594691962247e+00   5.847872062658515e+00  -4.273230000000012e-01  8.54445910e-01   8.77525390e-01  -9.53286100e-02
C     5.688064855856667e+00   5.445434429310757e+00  -4.681955999999978e-01  2.44798813e+00   4.09964820e-01   7.99333290e-01
C     6.043516618082863e+00   4.042938630164330e+00  -2.644397999999981e-01  3.96049590e-01  -1.65788360e-01  -2.29178874e+00
C     7.444778989179552e+00   3.659478852375341e+00  -4.050894000000014e-01 -1.50834903e+00  -3.43993463e+00   1.78556120e-01
C     7.803055479454782e+00   2.128740538537070e+00  -4.608236999999988e-01 -4.70527330e-01   6.35334945e+00   1.10855091e+00
C     9.170560782998962e+00   1.873405973769067e+00  -4.871637000000000e-01  8.04876800e-01  -9.29472250e-01  -2.01163810e-01
C     3.391821604065536e+00   4.820081826841356e+00  -3.645773999999982e-01 -3.51005375e+00  -1.02596026e+00   2.17274600e-01
C     3.653331080820890e+00   3.395147234058671e+00  -4.444349999999986e-01  1.12853505e+00   9.34215660e-01  -4.03688910e-01
C     5.025034926145723e+00   3.002831718907165e+00  -3.966971999999984e-01  3.45371300e-01  -1.24825050e-01   9.47086630e-01
C     5.371174973073246e+00   1.584508968729450e+00  -3.227945999999982e-01  1.72741162e+00   3.16687443e+00  -2.82302250e-01
C     6.767114688084707e+00   1.266958567555752e+00  -2.742708000000000e-01 -2.15165578e+00  -2.17022094e+00  -7.07588780e-01
C     1.150208525463808e+01   7.581756858325379e+00  -3.090164999999985e-01  6.02255390e-01  -6.42167280e-01  -2.61629630e-01
C     2.640962960016617e+00   2.378830240801431e+00  -6.150851999999993e-01  2.28976870e+00   2.77593868e+00   1.37013518e+00
C     3.125636491203607e+00   1.063847799621699e+00  -6.964490999999988e-01 -3.90963119e+00  -1.31774800e+00   1.63989453e+00
C     4.414494857620356e+00   5.953083656578992e-01  -4.451156999999988e-01  6.60003990e-01   6.91349260e-01  -8.37162880e-01
C     6.773088369645768e-01   5.251019301970596e-01  -5.801699999999990e-01 -2.83126960e+00  -1.11605764e+00   1.20749678e+00
C     2.033997384733124e+00   1.199711305348046e-01  -5.288643000000022e-01  4.83898600e-01  -5.11101780e-01  -1.76229787e+00
