26
Lattice="8.88768389401873 1.33226762955019e-15 0 4.44384194700937 7.69696003302603 0 0 0 30 " PBC="1 1 1" Properties=species:S:1:pos:R:3:force:R:3 Energy="-206.29057133"
C     6.864268009826368e-01   8.922008958070803e-01   3.354910500000000e+00 -1.75912235e+00  -1.60745093e+00   2.07243714e+00
C     2.985868773773396e+00   1.770474758196678e-01   3.621161400000000e+00  1.91613117e+00   3.79114147e+00   1.54394656e+00
C     4.389049818571412e+00   5.681401749312074e-01   3.733148400000000e+00 -2.75407992e+00   2.84379920e+00  -6.43143250e-01
C     9.811840374691826e+00   7.307513402760476e+00   3.740416500000000e+00  1.61178492e+00  -1.62647250e+00   9.60973260e-01
C     1.119861906554178e+01   7.677355180077187e+00   3.643158300000000e+00  1.32226873e+00  -3.83154080e-01  -8.57818010e-01
C     1.231436987945936e+01   6.701575612270747e+00   3.581818500000000e+00 -2.41264769e+00   1.50783515e+00  -7.66562400e-02
C     4.759387923213984e+00   7.111458822933925e+00   3.465393300000000e+00  1.18057027e+00   1.63192112e+00  -1.48270132e+00
C     5.770501590552366e+00   6.090795433317344e+00   3.313167000000000e+00  1.51609223e+00   3.73853193e+00   1.95282498e+00
C     7.127345406718873e+00   6.548342838662300e+00   3.655997100000000e+00 -1.11250314e+00  -4.10828937e+00  -1.33191333e+00
C     8.118246614417870e+00   5.435459246081478e+00   3.809625899999999e+00 -5.31316150e-01   4.17374313e+00  -3.07126590e-01
C     9.486135733065545e+00   5.910879069585694e+00   3.926714400000000e+00  1.00062186e+00  -1.22378250e+00  -1.75669644e+00
C     1.058818324933771e+01   4.945427590625910e+00   3.731256900000000e+00 -1.68090086e+00   1.39407647e+00   1.30775377e+00
C     1.195414911757399e+01   5.334605363051585e+00   3.581491800000000e+00 -1.55616871e+00   1.68299220e+00  -2.76444010e-01
C     4.059576313568823e+00   4.429556085805626e+00   3.327585300000000e+00  1.90108072e+00  -9.86170270e-01   1.04013656e+00
C     5.435041205006135e+00   4.779733284789693e+00   3.250266300000000e+00 -9.39615410e-01  -2.44219085e+00  -2.08769590e-01
C     6.363774130431903e+00   3.690329884537187e+00   3.296275800000000e+00  1.57969221e+00   2.56645865e+00   1.43020959e+00
C     7.700528536982125e+00   4.116682049667755e+00   3.619356600000000e+00  2.46410690e+00  -9.46951580e-01  -7.46214800e-01
C     8.818411595176887e+00   3.194986095147314e+00   3.589098300000000e+00 -1.03723932e+00  -1.27919344e+00   1.50477130e-01
C     1.022987893873304e+01   3.583853064326979e+00   3.769082400000000e+00 -1.74979725e+00   6.34349490e-01  -1.37515626e+00
C     2.397974260363987e+00   2.687504122820531e+00   3.675392100000000e+00  8.14214240e-01  -1.27457268e+00   4.93916560e-01
C     3.806778453901512e+00   3.108067558251737e+00   3.612559800000000e+00 -4.10951080e+00  -3.04486294e+00  -5.46205710e-01
C     4.684537401534718e+00   2.027822616799728e+00   3.614108400000000e+00  9.55679370e-01  -2.34131448e+00   8.46729300e-02
C     6.022347131606222e+00   2.355933708952187e+00   3.472881000000000e+00  1.82250645e+00  -1.42642203e+00  -1.09654385e+00
C     7.076190205655058e+00   1.328594591962387e+00   3.394077300000000e+00 -2.74965420e-01   1.75708410e+00   1.14693815e+00
C     8.436044502558062e+00   1.802852944198077e+00   3.371910000000000e+00  2.37835382e+00   6.26540300e-02   4.62208450e-01
C     2.036198953690612e+00   1.322383760974979e+00   3.657808200000000e+00 -5.45235900e-01  -3.09375930e+00  -1.94110570e+00
