26
Lattice="8.88768389401873 1.33226762955019e-15 0 4.44384194700937 7.69696003302603 0 0 0 30 " PBC="1 1 1" Properties=species:S:1:pos:R:3:force:R:3 Energy="-207.62029918"
C     5.163063103408000e-01   6.601170769889004e-01   3.843920400000000e+00 -5.78706650e-01  -6.64794820e-01   1.12392658e+00
C     2.916084457328281e+00   5.757110587559160e-02   3.545247300000000e+00  5.53144850e-01  -4.41299600e-02   1.32738762e+00
C     4.316659233311063e+00   5.211518503096637e-01   3.528454200000000e+00 -1.35559903e+00  -1.58450229e+00  -1.46738230e-01
C     9.742441917043987e+00   7.189870987482748e+00   3.424239000000000e+00  1.12708561e+00   1.50953989e+00   1.13692957e+00
C     1.110172731324383e+01   7.575832739099089e+00   3.741523800000000e+00  2.47677930e-01  -7.54507790e-01  -5.99793590e-01
C     1.211918127650101e+01   6.532606634789767e+00   3.847129800000000e+00 -5.34538960e-01   2.48460351e+00   5.30008380e-01
C     4.576296924496931e+00   6.941215305841577e+00   4.061728199999999e+00  1.27336415e+00   1.40346961e+00  -1.87983769e+00
C     5.612189943371668e+00   5.964303053397122e+00   3.972328500000000e+00  5.67402030e-01   8.16728390e-01   1.55433890e-01
C     6.988375848193746e+00   6.359415182005928e+00   3.726602400000000e+00 -1.82197090e-01   1.23807159e+00  -5.53938500e-01
C     8.015013188651732e+00   5.420549387837765e+00   3.550644900000000e+00  1.54860597e+00  -1.38953466e+00   4.70164710e-01
C     9.404891770362372e+00   5.844436832427526e+00   3.357714900000000e+00 -2.57405270e-01  -2.24129203e+00   5.50651490e-01
C     1.046983827233027e+01   4.812271336650913e+00   3.445770300000000e+00 -2.76715640e+00   7.02039850e-01   8.93198120e-01
C     1.177787515017141e+01   5.190800287905485e+00   3.750054900000000e+00  1.71376987e+00  -1.37017852e+00  -4.91157610e-01
C     3.941816634903239e+00   4.172142341224720e+00   3.881076900000000e+00 -2.43005272e+00   1.07370719e+00   4.10451740e-01
C     5.277914330479762e+00   4.581456207754480e+00   4.034732700000000e+00 -1.27109890e-01   1.39914140e+00  -2.57195720e-01
C     6.305664942241106e+00   3.672294829612493e+00   4.043040299999999e+00  3.26954966e+00  -1.95371058e+00  -1.21518360e+00
C     7.741672869651968e+00   4.021874667528631e+00   3.797078100000000e+00 -3.18706373e+00   1.57642029e+00  -1.29863150e-01
C     8.704774557617949e+00   3.025980095288589e+00   3.675747600000000e+00  1.04534069e+00   1.39972069e+00   7.30712580e-01
C     1.005922260970397e+01   3.466443174211757e+00   3.599193900000000e+00  1.74696789e+00  -2.55874103e+00  -1.11192352e+00
C     2.218597780170737e+00   2.392287990565884e+00   3.579241800000000e+00 -1.08681888e+00   2.39322021e+00   1.70638917e+00
C     3.541178908344451e+00   2.818197888373128e+00   3.829566300000000e+00  2.35907061e+00  -4.62552720e-01  -1.28017197e+00
C     4.659983974851682e+00   1.874521263277414e+00   3.767852100000000e+00 -2.16006737e+00  -1.39065800e-01   7.67498600e-02
C     5.998296170186093e+00   2.286046543393392e+00   3.910204800000000e+00 -1.23107200e-01  -6.26199220e-01   1.84759540e-01
C     6.987813876627104e+00   1.257445509806673e+00   3.882466500000000e+00  1.40949906e+00   6.46032780e-01  -2.21073500e-02
C     8.389012923507099e+00   1.691437138675817e+00   3.889161600000000e+00 -5.42289690e-01  -3.04081218e+00  -6.34233330e-01
C     1.907435922394912e+00   1.021065247899748e+00   3.719383500000000e+00 -1.52936544e+00   1.87326200e-01  -9.74618980e-01
