32
Lattice="9.928 0 0 4.964 8.59790020877191 0 0 0 30 " PBC="1 1 1" Properties=species:S:1:pos:R:3:force:R:3 Energy="-257.87558181"
C     1.498295912721139e-02  -4.000252685514970e-06   3.004604367413129e+00 -8.13117100e-01   5.87797840e-01   4.80787900e-02
C     1.250003593597864e+00   7.265158959386975e-01   3.009389726955750e+00 -5.51550740e-01  -2.31439370e-01  -2.03337260e-01
C     2.469746018196741e+00   9.945767241934262e-03   2.998723243761221e+00  1.15562707e+00  -2.78622400e-01   1.74100700e-02
C     3.723089384969765e+00   7.246665798248099e-01   2.992186559645257e+00 -6.60889500e-02  -3.19928860e-01   1.59500600e-01
C     4.971574019551113e+00  -5.402460591845078e-03   3.011595802409323e+00 -4.79655540e-01   5.17822340e-01  -2.90557990e-01
C     6.203874551202863e+00   7.238533060440937e-01   2.999485264441515e+00 -8.37590000e-02  -4.08221690e-01   1.54001490e-01
C     7.441487404788623e+00   5.987762987363056e-03   3.006118505999706e+00  1.99473260e-01  -4.87973490e-01  -1.04296310e-01
C     8.680617532450151e+00   7.148295137370536e-01   3.003062908678814e+00  5.51098580e-01   8.56327800e-02  -3.86893300e-02
C     1.248419316001004e+00   2.151717330317152e+00   2.985903524346659e+00 -2.46959980e-01   1.13716740e-01   2.40826510e-01
C     2.485636645043852e+00   2.858967291295504e+00   3.007133900440363e+00 -2.99648140e-01   8.24274950e-01  -1.19869650e-01
C     3.713031122023282e+00   2.157204824984297e+00   3.000242639357774e+00  1.02063647e+00  -3.31833620e-01   6.60766400e-02
C     4.973679534422911e+00   2.870781027013338e+00   3.008119290466915e+00 -1.14723200e+00   1.14464470e-01  -1.32095080e-01
C     6.189931828643041e+00   2.149676493453346e+00   3.002355008840774e+00  7.65530010e-01   2.45199830e-01  -4.32210000e-02
C     7.438331423190498e+00   2.869332418074920e+00   2.989443609998270e+00  2.34006340e-01  -4.76428240e-01   1.54046500e-02
C     8.680768940700720e+00   2.148931101811289e+00   2.990234918313097e+00  3.04968270e-01   1.50067820e-01   4.87230700e-02
C     9.937149346022801e+00   2.869906026738566e+00   2.990183692311480e+00 -4.74047640e-01  -6.96050900e-02  -3.14055700e-02
C     2.478341702677603e+00   4.302118314268222e+00   3.010888321221724e+00  3.29943970e-01  -3.70901610e-01  -1.58467020e-01
C     3.728035707667309e+00   5.016844844821947e+00   2.994972465030248e+00 -6.15339000e-01  -4.67958500e-02   2.68506600e-02
C     4.952391176481886e+00   4.307282974177821e+00   2.990346758932034e+00  9.51210940e-01  -4.33567450e-01   1.01732320e-01
C     6.199572380855389e+00   5.018174400801651e+00   2.988574552947838e+00  3.06304230e-01   8.78061100e-02   1.72760000e-04
C     7.456805359552637e+00   4.290591467156160e+00   2.984052183588941e+00 -1.12330321e+00   4.47378630e-01   1.07675270e-01
C     8.676875018264504e+00   5.009142485627484e+00   2.999648060027168e+00  8.59796450e-01   2.70090160e-01  -1.40137010e-01
C     9.933713871009854e+00   4.306483822406518e+00   2.995784388933079e+00 -5.31576150e-01  -5.79174410e-01  -1.79680500e-02
C     1.116765377208399e+01   5.008523228479947e+00   2.994831565589855e+00  2.89545980e-01   2.94074510e-01   1.45995930e-01
C     3.734549086909236e+00   6.440630279757583e+00   2.989209858065677e+00 -2.63535500e-01   6.81644840e-01   1.00930700e-01
C     4.966963182869804e+00   7.179399214949576e+00   3.003019822276528e+00  1.74025450e-01  -6.49153470e-01  -7.15779100e-02
C     6.204605992769245e+00   6.457066858201414e+00   2.999415953653662e+00  3.24897290e-01  -2.52626970e-01  -2.79601600e-02
C     7.455613900931679e+00   7.170419252320587e+00   2.998050170204340e+00 -4.72015680e-01  -7.36838000e-02  -1.14075000e-03
C     8.690055481443038e+00   6.442810949444985e+00   2.992876179352041e+00 -5.81692900e-02   3.61469190e-01   2.89255500e-02
C     9.933093506607715e+00   7.168123085680624e+00   2.989757212125373e+00  1.53023850e-01  -6.24005500e-01   2.12235630e-01
C     1.117874093520473e+01   6.436228689245456e+00   3.003724682463716e+00 -2.62993230e-01   5.93238090e-01  -1.79897030e-01
C     1.241771564534256e+01   7.156181910438806e+00   2.995523586362663e+00 -1.31097010e-01   2.59283540e-01   8.60794800e-02
