32
Lattice="9.784 0 0 4.892 8.47319255062695 0 0 0 30 " PBC="1 1 1" Properties=species:S:1:pos:R:3:force:R:3 Energy="-257.94007078"
C     2.216761927317867e-03  -3.868845409521878e-03   2.997195483852577e+00 -2.30629500e-01   2.43592730e-01   4.97884000e-02
C     1.220672516659971e+00   7.062256782382399e-01   2.999174433761558e+00  1.46269020e-01  -1.51156220e-01  -2.65280000e-02
C     2.444228733902080e+00  -8.906157752832522e-04   2.998600338656288e+00  6.18180800e-02   1.33889310e-01   4.94052800e-02
C     3.667624181421844e+00   7.061514844938035e-01   3.000945121659166e+00  9.92212200e-02  -4.27133100e-02  -3.39775000e-03
C     4.893499127629113e+00  -1.598854482213093e-03   3.001863320184616e+00 -2.05835990e-01   8.32390100e-02   1.23939400e-02
C     6.112707239421717e+00   7.047622305947815e-01   3.000639984083847e+00  2.02331140e-01  -4.81608700e-02  -2.23611000e-03
C     7.337942233904308e+00  -3.294046672809243e-03   3.000898529046658e+00 -4.26174700e-02   1.62076170e-01   3.77623000e-03
C     8.559962309780044e+00   7.038750749022227e-01   2.997444558705799e+00  6.91777700e-02  -5.40241300e-02   5.51729000e-03
C     1.225890147924508e+00   2.115180328435587e+00   2.999020837245814e+00 -3.95622830e-01   1.41254830e-01   2.05633100e-02
C     2.443510891364796e+00   2.820076272819831e+00   3.002124569426363e+00  2.06165760e-01   3.50781120e-01  -1.29637800e-02
C     3.670599332611757e+00   2.119391878104136e+00   3.001483611725944e+00 -8.67618700e-02  -1.13973460e-01  -2.73306000e-03
C     4.893603405148311e+00   2.822625406667496e+00   3.000415349835523e+00  5.23305700e-02   1.78442290e-01  -2.84355400e-02
C     6.118460478709439e+00   2.116353161644882e+00   2.998137805442632e+00 -2.30171990e-01  -7.66993000e-03   3.35033900e-02
C     7.338048857505538e+00   2.820460478405517e+00   3.000983293137123e+00 -5.64536600e-02   3.66836790e-01  -2.86693400e-02
C     8.557209689530687e+00   2.116372555806264e+00   2.997833703104281e+00  2.02932620e-01  -2.47080000e-02   1.80575500e-02
C     9.780228887230917e+00   2.824198670201254e+00   3.000386457162934e+00  2.12827440e-01  -1.96549970e-01  -1.37760600e-02
C     2.443156482995620e+00   4.239490683919580e+00   3.001824856041453e+00  9.81267900e-02  -3.04138530e-01  -5.03600000e-05
C     3.669567847415021e+00   4.942930444630004e+00   2.998384330202135e+00 -7.49975000e-02   5.39981700e-02  -1.92216600e-02
C     4.893097217625043e+00   4.238553339131525e+00   2.995719838019869e+00 -1.72036400e-02  -1.36334110e-01   4.08419200e-02
C     6.116321429273673e+00   4.946648579429885e+00   2.998126288753525e+00 -1.07386490e-01  -1.05582110e-01  -2.44205900e-02
C     7.335750623155255e+00   4.240468204385005e+00   3.000979087659227e+00  2.04042230e-01  -2.80699140e-01  -8.34344000e-03
C     8.562610219601565e+00   4.942937565822697e+00   3.001033337876216e+00 -1.39930910e-01   4.71580000e-03  -1.44625600e-02
C     9.784349103139798e+00   4.233518061589686e+00   3.001694911533875e+00 -1.60164360e-01   3.12310200e-02   1.09363000e-02
C     1.100301551921119e+01   4.938897047093336e+00   3.003387029515026e+00  1.70668800e-01   3.17758790e-01  -4.40647200e-02
C     3.669243102413028e+00   6.357392542097451e+00   2.996677909748353e+00 -1.32999100e-02  -1.93668390e-01   8.12558900e-02
C     4.890539507622948e+00   7.061136151211533e+00   3.003963145029034e+00  1.32521870e-01  -5.83097000e-02  -1.16360070e-01
C     6.114732126613461e+00   6.356143753918708e+00   2.996027213818607e+00  3.88881100e-02   6.89561200e-02   9.26326900e-02
C     7.338681307484485e+00   7.062709593533801e+00   3.003444118311414e+00 -4.97779200e-02  -1.18617520e-01  -9.21884300e-02
C     8.561623891822860e+00   6.355620849793957e+00   2.998204836124339e+00 -2.14935900e-02  -5.16579300e-02   7.65824100e-02
C     9.784597132491998e+00   7.059901857320221e+00   3.004300161395764e+00 -4.07423100e-02   8.57961800e-02  -7.59565000e-02
C     1.100465517168860e+01   6.356894819387005e+00   2.998126381368126e+00  1.50097900e-01  -2.63133650e-01   8.87881900e-02
C     1.223161915430764e+01   7.060692459920818e+00   3.003317167775074e+00 -1.74329380e-01  -7.14713500e-02  -7.02348200e-02
