2
Lattice="2.494 0 0 1.247 2.15986735703839 0 0 0 30 " PBC="1 1 1" Properties=species:S:1:pos:R:3:force:R:3 Energy="-16.11263929"
C     0.000000000000000e+00   0.000000000000000e+00   3.000000000000000e+00 -0.00000000e+00   0.00000000e+00   0.00000000e+00
C     1.247000000000000e+00   7.199557856794634e-01   3.000000000000000e+00  0.00000000e+00   0.00000000e+00  -0.00000000e+00
