32
Lattice="9.816 0 0 4.908 8.50090536354805 0 0 0 30 " PBC="1 1 1" Properties=species:S:1:pos:R:3:force:R:3 Energy="-258.02998929"
C     2.968907429447870e-04  -4.219819157795936e-03   3.000170942416404e+00  1.00200700e-02   3.02030200e-01   3.35686300e-02
C     1.226926043264923e+00   7.103090302865032e-01   3.002447404205241e+00 -3.92474500e-02  -2.65167690e-01  -2.06848800e-02
C     2.453254408647555e+00  -1.570381013379234e-03   3.003394346006511e+00  1.85921290e-01   3.10493120e-01  -3.17781500e-02
C     3.684444672076878e+00   7.109690004536263e-01   2.998868434489177e+00 -2.05273690e-01  -1.15386590e-01   7.71829200e-02
C     4.910471981199769e+00   1.158970833223172e-03   3.004013808033676e+00 -1.21109210e-01   1.73926400e-02  -1.03883260e-01
C     6.133772886264777e+00   7.089035206782204e-01   2.997454882309827e+00  2.30415500e-01  -9.15582200e-02   8.63545100e-02
C     7.363671967798410e+00  -3.716199335514434e-03   3.000967504315420e+00 -1.44014470e-01   3.11931310e-01  -3.04844900e-02
C     8.588345392088064e+00   7.081491377473969e-01   3.000419812661338e+00  7.88513500e-02  -2.05344910e-01   1.24818700e-02
C     1.225984531327989e+00   2.122686981781917e+00   2.998701288015326e+00  1.54593820e-01   2.19239660e-01   2.08283200e-02
C     2.456565999381375e+00   2.834900579578146e+00   2.999973532008496e+00 -1.95361330e-01  -6.92506500e-02  -1.19607900e-02
C     3.682788489249455e+00   2.128536115018736e+00   3.001811182445298e+00 -1.14555830e-01  -2.11919980e-01  -2.46397700e-02
C     4.905618901823805e+00   2.831627697689514e+00   3.001622233828115e+00  2.02722750e-01   1.58788980e-01   3.44336000e-03
C     6.134624684313495e+00   2.123873156241439e+00   3.003175220922662e+00 -3.20738700e-02   2.17208800e-02  -4.93130500e-02
C     7.361334233517524e+00   2.831183514610673e+00   3.000839422924892e+00 -2.14372100e-02  -6.13803000e-03   4.05271900e-02
C     8.587596818981760e+00   2.121398857519873e+00   3.002481153611879e+00  1.04940880e-01   1.99893110e-01  -3.66882300e-02
C     9.817371705296354e+00   2.832654992183129e+00   2.998953740940141e+00 -1.31283100e-01  -7.37881500e-02   6.74569000e-03
C     2.454219539402117e+00   4.249747246955563e+00   2.997388883433218e+00 -5.55019800e-02   9.73178200e-02   4.51105000e-03
C     3.682421248795980e+00   4.959359589115226e+00   2.996769861544641e+00 -1.09891570e-01  -4.93959000e-02  -1.31520600e-02
C     4.906586985691847e+00   4.248762579643738e+00   2.998437352499371e+00  1.75351400e-01   2.82851600e-02   2.24520900e-02
C     6.139271031120936e+00   4.954492181975986e+00   3.001233731609445e+00 -3.95855960e-01   3.10929490e-01  -2.91110600e-02
C     7.358439016885502e+00   4.248293859030755e+00   3.003438903924804e+00  3.22373330e-01  -6.67510900e-02  -1.17326500e-02
C     8.588501051886620e+00   4.955493302118943e+00   3.003279823417194e+00 -7.61781900e-02   2.29091320e-01  -2.49110700e-02
C     9.815274138445416e+00   4.249367834892102e+00   2.998444999677622e+00 -1.46357600e-02   1.66654200e-02   1.82325900e-02
C     1.104030801397814e+01   4.960875566044901e+00   2.997548880032245e+00  1.92482230e-01  -1.86064890e-01  -4.92647000e-03
C     3.680047669688042e+00   6.374480312008147e+00   2.995257969967815e+00  1.39379420e-01   9.71293500e-02   6.21389600e-02
C     4.910186539667122e+00   7.083801629155301e+00   3.002379248279608e+00 -1.83207470e-01  -1.06633330e-01  -8.00328500e-02
C     6.133685157969278e+00   6.378113277477844e+00   2.997273478676965e+00  2.36230100e-01  -2.72001910e-01   7.30769800e-02
C     7.363431651544161e+00   7.087058706077864e+00   3.001910171191391e+00 -1.64353940e-01  -1.50003190e-01  -8.30493000e-03
C     8.587847226062433e+00   6.378602863505392e+00   3.001843210208422e+00  1.61811510e-01  -2.16618690e-01  -1.63366800e-02
C     9.817165966554722e+00   7.086742607134855e+00   2.997031243039398e+00  2.90454500e-02  -1.91240590e-01   7.01851900e-02
C     1.104645982785608e+01   6.373541426886129e+00   2.998326303730895e+00 -2.20790180e-01   2.35598350e-01  -1.36055500e-02
C     1.227160312448675e+01   7.086401463949488e+00   2.999384418474232e+00  6.32060000e-04  -2.79243000e-01  -2.01834200e-02
