32
Lattice="9.732 0 0 4.866 8.42815922963016 0 0 0 30 " PBC="1 1 1" Properties=species:S:1:pos:R:3:force:R:3 Energy="-257.56421343"
C    -7.842623415997084e-03  -5.243356749572417e-03   2.998444645702612e+00  3.88843300e-01   8.30310030e-01   7.95171600e-02
C     1.223438505683359e+00   7.072903255133026e-01   2.998159779916115e+00 -6.97552290e-01  -5.05415780e-01   7.35444200e-02
C     2.426219462673792e+00  -8.031160093123090e-03   3.008739762578784e+00  9.24253730e-01   3.67051170e-01  -6.86837900e-02
C     3.662147000668718e+00   6.884414244590956e-01   3.002854596258874e+00 -1.05531346e+00   6.22604540e-01   9.31440700e-02
C     4.866510002644148e+00  -6.005252609581554e-03   3.000249300937302e+00  3.19783720e-01  -3.39576700e-02  -1.17349540e-01
C     6.075515567351686e+00   7.027091175292303e-01   2.989154465368202e+00  4.99260030e-01  -3.84582200e-02   9.57026000e-02
C     7.296394797914587e+00  -1.644861939596999e-03   3.000257146721633e+00  1.73379680e-01   7.08530160e-01  -1.58946000e-03
C     8.515160256883417e+00   7.126021653248112e-01   3.009703679395999e+00 -2.66470270e-01  -2.26308210e-01  -1.50256150e-01
C     1.211417694141206e+00   2.107710773168467e+00   3.000692748368627e+00  5.12630460e-01   1.87872730e-01  -1.71630590e-01
C     2.439415093465655e+00   2.817371494932146e+00   2.987465268518407e+00 -3.41255800e-01  -7.36801930e-01   3.38259290e-01
C     3.656568532411959e+00   2.104585537441155e+00   3.009840763243775e+00  9.33865800e-02  -1.25921060e-01  -1.99237590e-01
C     4.878252733661999e+00   2.811041418795038e+00   3.000061452565070e+00 -5.92614940e-01  -2.32300400e-01  -4.38036100e-02
C     6.091802331577081e+00   2.108763783880016e+00   2.991154525748012e+00 -5.94028450e-01  -2.24496150e-01   1.51164730e-01
C     7.289493421512654e+00   2.815163994986732e+00   3.011973881916087e+00  5.84070600e-01   1.20781110e-01  -2.38344170e-01
C     8.505348327292758e+00   2.121325476542600e+00   2.998131411128151e+00  2.89143700e-01  -5.79618890e-01   1.23658660e-01
C     9.727498527254829e+00   2.808263020779247e+00   2.990550246304872e+00  3.91123500e-02   5.00941500e-02   5.59320100e-02
C     2.433921265020063e+00   4.211373277221396e+00   3.013008475172038e+00  1.05577610e-01   6.29079310e-01  -3.87999540e-01
C     3.659626580086795e+00   4.913438024752749e+00   2.990474338089401e+00 -9.06809530e-01   7.37647500e-02   1.29880760e-01
C     4.860522151344649e+00   4.211846458769534e+00   2.988794439971970e+00  1.04444368e+00   1.74249180e-01   7.10455000e-02
C     6.090019995027973e+00   4.918767046783470e+00   2.994582828539029e+00 -5.50940620e-01   3.63133610e-01  -3.73394000e-02
C     7.306363291504181e+00   4.218642843166314e+00   2.998353982994024e+00 -4.27685310e-01  -1.05625160e-01   6.39773100e-02
C     8.525293456028065e+00   4.905644848893456e+00   2.994951751297331e+00 -6.39276320e-01   7.83500150e-01   5.45587000e-02
C     9.724544388749059e+00   4.208157122425556e+00   2.989211988928178e+00  1.10011544e+00   4.51811080e-01  -4.70031600e-02
C     1.095139477997098e+01   4.931841425463626e+00   2.985055286274851e+00 -2.66504070e-01  -1.08698684e+00   2.38106420e-01
C     3.636763674911859e+00   6.316659523522668e+00   2.991548387320476e+00  8.30166530e-01   2.22501020e-01   4.77800200e-02
C     4.858212627599872e+00   7.026431177939277e+00   2.999914752488273e+00 -2.20351660e-01  -1.81796540e-01  -8.48921200e-02
C     6.072474799146953e+00   6.335201839378814e+00   2.997939130441524e+00  6.40279270e-01  -8.88925680e-01   3.17071700e-02
C     7.310095513161725e+00   7.016259062181134e+00   3.007871712538440e+00 -1.26850965e+00   4.54300730e-01  -1.03231000e-03
C     8.504961684391693e+00   6.321392258051540e+00   3.007677157443339e+00  1.39339149e+00  -5.40193990e-01  -1.48979580e-01
C     9.741100066284272e+00   7.019948785799167e+00   2.990306573863055e+00 -9.08651650e-01  -3.21386300e-02   1.83331790e-01
C     1.094747100552002e+01   6.325117145362640e+00   2.998443388118751e+00  5.05138680e-01   1.95242380e-01  -1.58320480e-01
C     1.217326695045167e+01   7.034946624625595e+00   2.996478911962805e+00 -7.07012840e-01  -6.95880970e-01   2.51508700e-02
