76
Lattice="10.7446858958278 0 0 5.37234294791388 9.3051709414712 0 0 0 30 " PBC="1 1 1" Properties=species:S:1:pos:R:3:force:R:3 Energy="-607.93241801"
C     5.547540103601873e+00   9.294503864241221e+00  -4.791035999999984e-01 -4.03145278e+00   1.55498802e+00  -3.43680840e-01
C     1.255238421220479e+01   8.487108697844088e+00  -7.710444000000010e-01 -1.81539042e+00   2.63280588e+00   2.14210950e-01
C     1.396494019990210e+01   8.463723035289389e+00  -7.952250000000021e-01 -1.91364020e-01  -6.24703544e+00   7.10041230e-01
C     1.452202395901661e+01   7.060229034149788e+00  -5.696097000000009e-01 -2.04640527e+00   4.91271080e-01   8.55620500e-01
C     8.229172915830855e+00   8.964719487060101e+00  -2.694963000000001e-01  1.79382037e+00   4.82639220e-01  -3.26544240e-01
C     9.677159988794285e+00   8.879985111653109e+00  -3.829764000000004e-01 -2.17247431e+00  -2.96956968e+00  -4.64600700e-02
C     1.022015794820476e+01   7.577489901154815e+00  -4.180601999999993e-01  4.05462510e-01  -1.32948116e+00   1.16717248e+00
C     1.164496148101891e+01   7.427105032369971e+00  -4.197221999999989e-01  1.54912817e+00  -1.92864685e+00  -5.31368250e-01
C     1.225200631041868e+01   6.119519242005531e+00  -1.213392000000013e-01 -2.47491793e+00  -9.83352960e-01   6.42758040e-01
C     1.363879433866719e+01   5.901137115731764e+00  -1.681728000000007e-01  9.29608370e-01   3.24135535e+00  -9.23204860e-01
C     5.992971426208267e+00   7.999464608062021e+00  -5.022261000000015e-01  2.70054709e+00   3.20047230e-01   8.01639200e-02
C     7.403563124152774e+00   7.847819353873354e+00  -4.093869000000012e-01 -2.30434820e-01  -9.76038380e-01   6.40627350e-01
C     7.953987165776178e+00   6.556710322744080e+00  -2.779406999999985e-01  5.69808990e-01  -6.45175910e-01  -3.03729800e-01
C     9.365083917681414e+00   6.409489956492511e+00  -1.763574000000006e-01  9.72788810e-01   1.24813188e+00  -9.09564460e-01
C     9.972284491303302e+00   5.135935130341548e+00  -3.298859999999948e-02 -1.15946087e+00  -1.27618952e+00   9.56788640e-01
C     1.134569017443365e+01   4.962808982089601e+00   2.077794000000000e-01  2.59908764e+00  -7.52800410e-01  -1.86795405e+00
C     1.194236460906674e+01   3.544903783560093e+00   2.285334000000000e-01  6.24956720e-01   3.06396849e+00  -1.69263560e-01
C     5.158073874314796e+00   6.901202825319803e+00  -4.698393000000003e-01 -8.56845010e-01  -1.84409764e+00  -1.77395580e-01
C     5.689545042138613e+00   5.570312141284423e+00  -2.973782999999983e-01  1.55155388e+00   1.92125820e+00   1.45441370e-01
C     7.111962019044084e+00   5.401035076991806e+00  -2.764472999999974e-01 -3.92111170e-01   7.83016760e-01   2.51734170e-01
C     7.667131988429517e+00   4.121516938992235e+00  -2.097309000000003e-01  2.13393157e+00  -1.48631235e+00  -1.90688230e-01
C     9.119207844165334e+00   3.962762906412245e+00  -6.850049999999896e-02 -1.98839460e-01  -7.03032260e-01  -8.12299830e-01
C     9.734324887464625e+00   2.625075725522289e+00  -1.912571999999990e-01 -2.29142314e+00   5.17856590e-01   2.82903950e-01
C     1.110346536008011e+01   2.408889898745491e+00   3.461850000000000e-02  3.67652600e-01   9.71425960e-01  -3.06416490e-01
C     3.480238199728309e+00   4.667584381986476e+00   9.643889999999999e-02 -6.70834030e-01  -2.67361435e+00  -3.55926910e-01
C     4.873916311533620e+00   4.503113903742917e+00  -4.771590000000003e-02  4.25400830e-01  -3.44579105e+00  -7.51309560e-01
C     5.486068090141659e+00   3.122761676627676e+00  -2.092968000000006e-01 -3.66797358e+00   3.55610090e-01   7.59553110e-01
C     6.843897094675914e+00   2.945246465346749e+00  -3.625712999999990e-01  1.45914349e+00  -2.31861760e-01   2.75388980e-01
C     7.435152124634767e+00   1.615986977777151e+00  -5.688777000000016e-01  8.96173760e-01   1.73863313e+00  -4.32687200e-01
C     8.898113260485585e+00   1.484410651013329e+00  -5.238759000000002e-01 -7.75593440e-01   7.77273040e-01   1.67613100e-02
C     9.480626843783634e+00   1.901706159661646e-01  -7.095096000000005e-01  9.36157770e-01   2.27814717e+00   9.30779970e-01
C     2.649212978909770e+00   3.458899159268082e+00   1.941261000000000e-01 -8.63774940e-01  -8.76072960e-01   2.57348520e-01
C     3.211761162932445e+00   2.094106480688454e+00   9.396180000000000e-02 -2.11857228e+00   8.85052290e-01  -6.00747980e-01
C     4.555748648196603e+00   1.959966765434080e+00  -1.730721000000024e-01  3.36124510e+00   1.15473290e-01  -2.65492030e-01
C     5.127431480660593e+00   6.379876436079380e-01  -4.184816999999974e-01  2.55095313e+00   3.77033910e+00  -1.15281025e+00
C     6.581673733690998e+00   5.249086939489042e-01  -8.085555000000006e-01 -1.33100492e+00  -1.43497964e+00   2.38832051e+00
C     9.194097176696316e-01   1.123335031098595e+00  -1.258955999999998e-01  1.18267766e+00  -5.50259520e-01  -3.33827150e-01
C     2.323234197540601e+00   9.147065850041366e-01  -7.984169999999935e-02  2.59508610e-01   3.20477265e+00   7.35140560e-01
C     1.608976458559276e+01   9.277585295489823e+00   3.328142100000000e+00 -2.95329691e+00   1.23678873e+00   6.18656640e-01
C     1.185626797818434e+01   8.733810646615197e+00   3.747727800000000e+00 -3.35076418e+00   1.73805364e+00  -1.38511092e+00
C     1.320932580494470e+01   8.950213842185153e+00   3.563385300000000e+00  1.86000816e+00   8.07870950e-01  -8.72546700e-02
C     1.409425663141267e+01   7.852928730184797e+00   3.633182100000000e+00 -8.64684440e-01  -1.11988512e+00  -1.37413290e-01
C     7.491440256935668e+00   8.272857230002298e+00   3.571061700000000e+00  3.03071539e+00   2.59892261e+00   7.45093180e-01
C     8.955260913935057e+00   8.486357491394102e+00   3.653576100000000e+00 -5.30447860e-01  -2.45317265e+00   4.17432400e-01
C     9.859780699607898e+00   7.279019378272692e+00   3.824494200000000e+00 -1.54112813e+00   3.83256113e+00  -1.39499619e+00
C     1.123471121483774e+01   7.457771898133510e+00   3.701306400000000e+00  2.10420800e+00  -6.46619150e-01   1.09347179e+00
C     1.211522216103732e+01   6.307160805561912e+00   3.707904600000000e+00 -2.04671975e+00   9.31547830e-01   9.09552400e-02
C     1.349810385128002e+01   6.522754916518636e+00   3.747432600000000e+00  1.42226302e+00   6.12628230e-01  -1.89219560e-01
C     4.758591019044304e+00   8.007558152693923e+00   3.599098200000000e+00 -9.56779100e-02  -1.38922645e+00   1.86560940e-01
C     5.545863126750031e+00   6.827151530565608e+00   3.901598400000000e+00  1.12375996e+00   2.75303860e-01  -1.37577292e+00
C     6.977873066673880e+00   7.030619328856742e+00   3.880716600000000e+00 -5.81201070e-01  -2.09636997e+00  -6.10750800e-01
C     7.876092866939544e+00   5.890588029540505e+00   3.902334900000000e+00 -1.20740194e+00  -1.05239975e+00  -2.39116970e-01
C     9.288453623694057e+00   6.033884219103257e+00   3.801939000000000e+00 -1.52703247e+00  -1.55564954e+00   7.12615430e-01
C     1.008956617620129e+01   4.871610769689140e+00   3.760854000000000e+00  4.56845840e-01  -1.05595642e+00  -1.30661841e+00
C     1.148202186509176e+01   5.029427306296924e+00   3.672276300000000e+00  1.88687659e+00  -7.59961570e-01  -4.11324180e-01
C     1.236372799642742e+01   3.865556438187535e+00   3.510121800000000e+00 -2.43952704e+00   1.99752076e+00   1.23766173e+00
C     3.584135551741245e+00   5.390673955253535e+00   3.846663900000000e+00  3.26558180e-01  -1.30031841e+00  -8.25716100e-02
C     5.026308782611045e+00   5.480522824815987e+00   3.883280100000000e+00 -9.56438400e-01   1.67892357e+00   1.48155329e+00
C     5.884453483194325e+00   4.351167348119212e+00   4.047416700000000e+00  6.74917440e-01   5.97836590e-01  -1.95681565e+00
C     7.319564017128338e+00   4.540968641850768e+00   3.883371900000000e+00 -1.23145890e-01   7.93099810e-01   1.01922382e+00
C     8.176475550110874e+00   3.392025408118456e+00   3.753678300000000e+00 -2.39888901e+00  -3.31852760e-01  -4.52211940e-01
C     9.547569030558968e+00   3.533538075567139e+00   3.568001700000000e+00  7.12426070e-01   1.59383172e+00   1.21781261e+00
C     1.040743717876061e+01   2.411506512813819e+00   3.441678900000000e+00 -1.96453185e+00   3.20221890e-01  -1.12598818e+00
C     1.176353483833237e+01   2.604192223433357e+00   3.353835900000000e+00  3.87674474e+00  -1.69991334e+00   1.15907071e+00
C     2.956747754803577e+00   4.089915834066320e+00   3.809106300000000e+00  2.49734157e+00  -8.54205090e-01  -1.03394500e+00
C     3.829241661065730e+00   2.946848071368942e+00   3.788496000000000e+00  1.93733703e+00   1.93823280e-01  -2.07211490e-01
C     5.301928349358934e+00   3.076774219118265e+00   3.864023100000000e+00 -1.76711694e+00  -5.49615090e-01   6.17206380e-01
C     6.106926072840750e+00   1.906744537518818e+00   3.775197600000000e+00  1.10098407e+00  -6.20753700e-02  -4.43865710e-01
C     7.539037657493212e+00   2.091309253252180e+00   3.681104100000000e+00  5.72124460e-01   2.39728010e-01  -3.88503770e-01
C     8.403601072262864e+00   9.825032230075920e-01   3.428161200000000e+00 -8.92239930e-01  -8.50414100e-01   9.09180820e-01
C     9.807086020059394e+00   1.137029916429540e+00   3.308720700000000e+00  9.91488890e-01  -1.34648136e+00   4.34094010e-01
C     1.955791028602177e+00   1.440340523976104e+00   3.452280000000000e+00 -2.73126484e+00   1.49957955e+00  -1.08392417e+00
C     3.331167985531165e+00   1.639365103143388e+00   3.580175400000000e+00 -2.22388810e-01  -2.05747830e-01   4.95514070e-01
C     4.146069784411594e+00   4.684489179084884e-01   3.645129000000000e+00  8.13188900e-01  -4.29247080e-01  -3.66852070e-01
C     5.563461794062211e+00   5.792228836739748e-01   3.671044800000000e+00  1.09912783e+00   4.79036980e-01   9.32042400e-01
C     1.334953407082867e+00   1.733564512327128e-01   3.390522000000000e+00  1.71065832e+00  -1.68350050e+00   4.00702380e-01
