76
Lattice="10.7446858958278 0 0 5.37234294791388 9.3051709414712 0 0 0 30 " PBC="1 1 1" Properties=species:S:1:pos:R:3:force:R:3 Energy="-605.56505166"
C     2.310117138717310e-01   1.403171390863112e-01   3.037389000000000e-01  8.84673870e-01  -1.94989652e+00  -1.64952610e-01
C     1.265324565321668e+01   8.711978203193803e+00   2.475141000000000e-01  1.81364809e+00  -7.00048254e+00   4.74879020e-01
C     1.408907387844538e+01   8.408627676463906e+00   4.002390000000000e-01 -5.24942410e-01   5.33037530e-01  -8.65804430e-01
C     1.464521726264992e+01   7.108726282365136e+00   1.172052000000000e-01 -9.98642300e-02  -8.52057960e-01  -3.74595990e-01
C     8.441397976193871e+00   9.029225537464043e+00  -6.460919999999959e-02  1.12396180e-01  -6.36720480e-01   7.57205220e-01
C     9.860174384899274e+00   8.878739242315953e+00   1.067244000000000e-01 -1.26769617e+00   1.35048500e+00  -5.70212440e-01
C     1.040069650006124e+01   7.567948378872940e+00   3.224760000000000e-02 -1.33743150e-01   1.00671804e+00   5.84206400e-02
C     1.180289944565962e+01   7.541748832625985e+00   6.873690000000000e-02  1.19718411e+00  -1.73450299e+00  -1.03408807e+00
C     1.236822024215536e+01   6.254673779202620e+00  -2.747774999999990e-01  9.03885980e-01   1.94405250e-01   9.62510770e-01
C     1.379027001942019e+01   6.000491775719683e+00  -2.451149999999984e-01 -5.89239590e-01   1.40291119e+00   7.43385470e-01
C     6.184173971373639e+00   8.058679924372898e+00   1.901745000000000e-01 -8.15986310e-01  -6.52577940e-01  -4.54438990e-01
C     7.590067394238082e+00   7.834501886275735e+00   2.972880000000000e-02 -7.28349430e-01   2.66018626e+00  -6.99613920e-01
C     8.121059725134765e+00   6.556075523982553e+00  -1.885350000000017e-01  1.06580979e+00  -7.93182250e-01   4.23336710e-01
C     9.565574330509035e+00   6.424988556158466e+00  -1.784183999999982e-01 -9.26790640e-01  -4.67801960e-01  -4.85136350e-01
C     1.012767156006449e+01   5.107836305654030e+00  -3.732299999999995e-01  9.89208460e-01   4.39090696e+00   8.86675630e-01
C     1.155648726604055e+01   5.129683637348927e+00  -3.885609000000017e-01 -1.14192043e+00  -3.47251031e+00  -1.17419008e+00
C     1.208012786795074e+01   3.761378628946287e+00  -5.411807999999994e-01 -6.71814160e-01   1.90495720e-01   1.49652599e+00
C     5.311933478528437e+00   6.835987906993651e+00   6.355139999999999e-02  1.13696880e-01   2.86296687e+00  -3.84560910e-01
C     5.810701260772142e+00   5.531719689224448e+00  -2.802399000000015e-01  3.52334411e+00   2.30019651e+00   1.54783325e+00
C     7.301320400045009e+00   5.373485164338039e+00  -2.629554000000027e-01 -1.64497586e+00   1.98117525e+00   4.15578890e-01
C     7.900430762418494e+00   4.118082493449990e+00  -8.076210000000117e-02 -1.25787018e+00   1.43046617e+00  -1.01691983e+00
C     9.307255910720755e+00   4.020322739761188e+00  -2.127407999999988e-01 -9.02231160e-01  -2.01671613e+00   6.21954760e-01
C     9.864884855197833e+00   2.754112578084876e+00  -9.344999999999715e-03  1.94972340e-01  -1.76552498e+00   5.55475880e-01
C     1.128931517134725e+01   2.626440049685512e+00  -2.280245999999977e-01 -1.36621546e+00  -2.38838202e+00   9.26257680e-01
C     3.562472277199953e+00   4.706771899728064e+00  -3.388974000000005e-01  3.88907200e-02  -2.76299535e+00  -7.04550640e-01
C     4.979580627142810e+00   4.435721389313385e+00  -2.731884000000022e-01 -2.21864310e+00   1.68868991e+00  -2.82222310e-01
C     5.493723302781402e+00   3.184579370095344e+00  -1.189992000000011e-01  4.11921428e+00  -1.44305149e+00  -2.62569030e-01
C     7.001125480259781e+00   3.052162321137093e+00   7.861980000000000e-02 -1.43813446e+00  -5.10385730e-01  -2.87674100e-01
C     7.595474120182962e+00   1.810501340589817e+00   3.284271000000000e-01 -2.50971409e+00  -2.10482129e+00  -1.40894950e-01
C     8.959777603823410e+00   1.649552032081663e+00   4.139940000000000e-01  3.46944195e+00  -1.64616129e+00  -1.13838065e+00
C     9.558114026471516e+00   2.254246518479956e-01   5.045111999999999e-01  3.00391950e-01   3.23878820e+00  -8.42052740e-01
C     2.689997066691266e+00   3.503323627214702e+00  -4.759467000000015e-01  2.67147409e+00   2.04577023e+00   6.92845500e-02
C     3.255828343214116e+00   2.207868895153030e+00  -3.692007000000004e-01  2.51824806e+00  -9.93778980e-01   2.44022350e-01
C     4.728873742846091e+00   2.031010163681920e+00  -2.181755999999986e-01 -1.67912826e+00  -3.49072860e-01   1.63694606e+00
C     5.323386615293253e+00   7.778547846275908e-01   1.967871000000000e-01 -2.16437971e+00  -1.44636357e+00  -1.93538516e+00
C     6.702379642538458e+00   5.731409308958814e-01   2.952129000000000e-01  5.38717530e-01   6.89000124e+00   6.94400400e-01
C     1.121683909526941e+00   1.262150687802027e+00   2.068830000000000e-02 -2.55837657e+00   5.87636980e-01  -7.32691770e-01
C     2.480236031422266e+00   1.026085666035851e+00  -2.026194000000032e-01  2.74153860e-01   2.70682140e-01   5.17641190e-01
C     1.590658203515343e+01   9.224541075494644e+00   3.937806000000000e+00  1.69971828e+00  -7.12848300e-02   8.19106310e-01
C     1.160415321769414e+01   8.718070856918478e+00   3.608687100000000e+00  1.70648007e+00   1.42449170e+00  -1.10180190e-01
C     1.302098161484587e+01   8.848661952183173e+00   3.842896500000000e+00  2.04101841e+00  -9.32529080e-01  -3.53651300e-02
C     1.397756375530200e+01   7.724386726612800e+00   3.656813100000000e+00 -1.97151619e+00   3.24781070e-01   6.47726730e-01
C     7.421284495777932e+00   8.227854538733466e+00   3.605561100000000e+00  1.90435433e+00  -1.73953970e-01  -1.01218156e+00
C     8.869192756470287e+00   8.327432615875654e+00   3.455657400000000e+00 -1.83501013e+00   2.60510732e+00   3.07139130e-01
C     9.696205696680048e+00   7.230167882199657e+00   3.297082800000000e+00 -1.11730139e+00  -1.85091732e+00  -9.54657590e-01
C     1.107701516680008e+01   7.441605187194064e+00   3.361553700000000e+00  2.34276440e-01  -5.89192110e-01   9.37478100e-01
C     1.192696473427714e+01   6.310103286716560e+00   3.409478100000000e+00  1.34249369e+00   2.00843170e-01  -1.21105758e+00
C     1.336905576829980e+01   6.452545726845567e+00   3.390991200000000e+00  5.89089150e-01  -3.50626730e-01  -1.63539000e-03
C     4.661906413505751e+00   7.900076263355300e+00   3.747080400000000e+00 -1.68812759e+00   5.17474540e-01  -1.09868421e+00
C     5.468039904010626e+00   6.819818125347793e+00   3.295416900000000e+00  8.31623970e-01  -5.48919270e-01   7.00639890e-01
C     6.900454327635181e+00   6.949381743637295e+00   3.245049900000000e+00 -2.54145707e+00   8.43111810e-01   1.15296277e+00
C     7.632537162066999e+00   5.783038677712566e+00   3.099947100000000e+00  2.83669473e+00  -1.96468809e+00  -2.52353580e-01
C     9.105604480858210e+00   5.869300589981067e+00   3.084484800000000e+00 -2.15788048e+00   4.13446872e+00   1.72391376e+00
C     9.908856998732718e+00   4.810410102106503e+00   3.321762000000000e+00  2.81485155e+00  -1.48727906e+00  -1.30144572e+00
C     1.138240879541116e+01   5.034079984818633e+00   3.290712900000000e+00 -8.62083700e-01  -2.75946103e+00   9.13603410e-01
C     1.223695219962134e+01   3.854545629414233e+00   3.349622700000000e+00  1.58863655e+00  -5.38590850e-01  -7.08411890e-01
C     3.501277208018811e+00   5.330575485168741e+00   3.141081000000000e+00 -6.39122650e-01  -1.10526182e+00  -5.68835200e-02
C     4.904820015948911e+00   5.532621918598791e+00   3.085773000000000e+00 -7.92830370e-01  -1.34353888e+00  -1.71430650e-01
C     5.682639056446677e+00   4.301722461295334e+00   3.001700100000000e+00 -9.46678740e-01  -7.08447900e-01   3.48283250e-01
C     7.054031991290804e+00   4.428817138579324e+00   3.121514700000000e+00  1.86514182e+00   9.66445640e-01   7.17312180e-01
C     7.935718997085568e+00   3.316068135200621e+00   3.486935100000000e+00  1.10282280e-01   5.33325630e-01  -1.65057073e+00
C     9.338432852498483e+00   3.515879094364044e+00   3.392492700000000e+00  1.58829095e+00  -1.74671796e+00   1.96779046e+00
C     1.022131617162135e+01   2.381010210833610e+00   3.703121100000000e+00  3.11123270e-01   6.88664200e-02   7.91433230e-01
C     1.170194946843591e+01   2.541320254098186e+00   3.640189800000000e+00 -2.78469267e+00   1.11797064e+00  -5.19440510e-01
C     2.999783982473141e+00   3.930213790670963e+00   3.066354300000000e+00 -5.46410817e+00   5.10696407e+00   1.39367517e+00
C     3.720217321005321e+00   2.811593038325700e+00   3.092808900000000e+00  1.13376703e+00  -4.21603758e+00   9.45597080e-01
C     5.110913191515658e+00   2.917569444057941e+00   3.057268800000000e+00  2.13149418e+00   3.36078005e+00   1.16307926e+00
C     5.998467655386694e+00   1.911839397763597e+00   3.523756500000000e+00  4.94299480e-01  -1.25760564e+00  -1.42175660e+00
C     7.425397292923305e+00   2.008993384824205e+00   3.658493100000000e+00 -3.06526210e-01  -3.50832490e-01   1.44812997e+00
C     8.267803016429978e+00   8.030409977591794e-01   4.056171300000000e+00 -1.85059566e+00   3.23002446e+00  -2.00506778e+00
C     9.670267326512864e+00   1.067837688888503e+00   4.095665100000000e+00  7.13604420e-01  -2.81633770e-01  -1.90082078e+00
C     1.750602179524205e+00   1.383928948721158e+00   3.732466500000000e+00  2.06909890e+00   6.72474000e-03  -4.48636930e-01
C     3.148653002426808e+00   1.483522379395396e+00   3.449384100000000e+00 -4.59600000e-04   1.89771068e+00  -6.74794100e-01
C     4.016569511325274e+00   3.813295341378666e-01   3.432775200000000e+00  1.22231933e+00  -5.14905950e-01   5.81128610e-01
C     5.463962456881864e+00   6.164452423647441e-01   3.502898400000000e+00 -2.14465221e+00  -2.32022309e+00   4.21495470e-01
C     1.250307201350103e+00   8.250299541557840e-02   3.885967200000000e+00 -2.31028710e+00  -1.24979914e+00  -9.02444140e-01
