64
Lattice="9.86 0 0 4.93 8.53901048131456 0 0 0 30 " PBC="1 1 1" Properties=species:S:1:pos:R:3:force:R:3 Energy="-515.02650952"
C     4.945105815799999e+00   8.401460512803759e+00   1.507338000000000e-01 -1.18588726e+00  -2.43606403e+00   3.58392800e-02
C     1.240701449400000e+00   5.281851043060592e-01   1.274973000000000e-01  1.24479470e-01   8.60920400e-01   7.71160000e-03
C     1.230971502800000e+00   8.828503428897152e-01   3.438175500000000e+00 -1.25047700e-02   8.73179090e-01  -6.63693430e-01
C     2.468791564400000e+00   1.563678456975835e+00   3.269277600000000e+00 -6.33804300e-02   1.09755817e+00   5.67365000e-02
C     7.398821045799998e+00   8.342995103508665e+00   1.824177000000000e-01  3.32453560e-01   1.25476092e+00   1.79821980e-01
C     3.720106860100000e+00   5.328855734049848e-01   1.670421000000000e-01 -1.55327985e+00   2.34092920e-01  -1.16883317e+00
C     3.708656491400000e+00   8.589139594923888e-01   3.400384500000000e+00 -7.25376460e-01   5.82900350e-01  -2.26982020e-01
C     4.909027336299999e+00   1.607071744262785e+00   3.373328700000000e+00  1.07446582e+00  -4.80895370e-01   3.93720720e-01
C     9.847134228300000e+00   8.362767267665211e+00   7.589849999999999e-02  9.39534000e-01   6.44048700e-02   4.00468430e-01
C     6.157653119800000e+00   5.324059371863231e-01   8.820000000000000e-02 -3.23238330e-01   1.39522522e+00   2.20685430e-01
C     6.151856721600000e+00   8.928462793378128e-01   3.520521900000000e+00  1.58459220e-01  -4.08424060e-01  -7.81094200e-01
C     7.403440653000000e+00   1.559994898634973e+00   3.532592400000000e+00  4.06486720e-01   3.92114050e-01  -3.22330870e-01
C     1.232255851610000e+01   8.359135626508067e+00   8.242500000000000e-02 -2.99391920e-01   3.89980440e-01  -1.44186070e-01
C     8.623507242299999e+00   5.469062870527256e-01   1.890912000000000e-01  9.99472200e-02  -1.09218339e+00  -9.13256330e-01
C     8.649528669699999e+00   8.807416342516792e-01   3.473805600000000e+00 -7.63691200e-02   1.20587863e+00  -1.31121850e-01
C     9.863473382199999e+00   1.632405536725163e+00   3.353397600000000e+00  1.16823880e-01  -6.26036350e-01   5.29488260e-01
C     1.224937725100000e+00   1.967205706718252e+00  -1.841429999999988e-02 -8.14386420e-01  -1.03668625e+00  -1.26440170e-01
C     2.438890079100000e+00   2.621660233035844e+00  -2.002224000000012e-01  7.23888670e-01   2.39058913e+00   6.46031600e-01
C     2.450885508600000e+00   3.002210371818257e+00   3.016839300000000e+00  1.81419281e+00  -5.56769570e-01   8.02728160e-01
C     3.723650692000000e+00   3.735467668691158e+00   3.052646700000000e+00 -8.46501530e-01  -8.94591800e-01   5.64244050e-01
C     3.692000486400000e+00   1.951166627163354e+00  -4.005030000000076e-02 -1.06827459e+00   1.75866100e-02   1.57920450e-01
C     4.855217273699999e+00   2.725114102165655e+00   9.959700000000000e-03  2.76284042e+00  -9.71888490e-01   1.99500110e-01
C     4.951810369300000e+00   3.034737939049617e+00   3.274649100000000e+00 -8.40153160e-01  -1.46747743e+00   8.34683200e-02
C     6.198816746399999e+00   3.651813032381114e+00   3.459352200000000e+00  6.52754600e-02   2.29752228e+00  -3.68060600e-02
C     6.122628772900000e+00   2.004822609585796e+00   1.484625000000000e-01 -1.33378120e-01  -1.31678409e+00  -5.35352770e-01
C     7.379083593600000e+00   2.668185287806438e+00   1.597806000000000e-01 -6.26302290e-01   7.71194050e-01  -5.46278000e-03
C     7.440001385099999e+00   2.956984783662509e+00   3.498774000000000e+00 -1.70093200e-02   2.06975588e+00   2.86469480e-01
C     8.670281061000001e+00   3.771338002355123e+00   3.432198000000000e+00 -1.84255674e+00  -1.37104156e+00   6.76366500e-02
C     8.590474122400000e+00   1.931125228006374e+00   1.308081000000000e-01  1.44993417e+00   2.69059419e+00   1.18401700e-01
C     9.857535197199999e+00   2.702120681695635e+00   1.172700000000000e-02 -2.78860970e-01  -1.74579962e+00  -2.62860750e-01
C     9.859113438100000e+00   3.069501275394954e+00   3.248075700000000e+00  9.54807600e-01  -1.52198070e+00   1.27026100e-01
C     1.110223162280000e+01   3.734035847413872e+00   3.036205800000000e+00 -4.42516010e-01  -7.52253340e-01   1.92433240e-01
C     2.435260810300000e+00   4.092293362316359e+00  -2.635235999999992e-01  8.36198430e-01  -5.26306760e-01   3.57219240e-01
C     3.689360274200000e+00   4.803864219663309e+00  -1.637127000000014e-01 -1.05902035e+00   3.76880470e-01  -5.21399260e-01
C     3.704775053100000e+00   5.141980087425781e+00   3.118420800000000e+00  4.06326510e-01   5.30076390e-01   1.42260900e-02
C     4.946302080300000e+00   5.844947977104236e+00   3.328594500000000e+00 -1.97571100e-02  -6.96111500e-02   4.36382030e-01
C     4.905119966199999e+00   4.142276203990725e+00  -3.423420000000021e-02  1.53342417e+00  -6.34005140e-01   4.77900610e-01
C     6.188230951800000e+00   4.853397823996321e+00   1.601805000000000e-01 -1.65691580e+00  -2.01022849e+00  -3.40504730e-01
C     6.183970347199999e+00   5.108389754950082e+00   3.529057800000000e+00 -8.75342650e-01  -2.45372000e-03  -7.64024480e-01
C     7.381071616100000e+00   5.851511060559164e+00   3.598123500000000e+00  6.58619540e-01   7.37903460e-01  -1.16918990e-01
C     7.409022201799999e+00   4.115871534224049e+00   1.816116000000000e-01 -1.34827840e-01  -8.01233150e-01  -1.93180960e-01
C     8.642660095099998e+00   4.794858210700158e+00   1.189479000000000e-01  5.36269700e-01   1.22711678e+00  -5.02376440e-01
C     8.639814449799999e+00   5.185494970221966e+00   3.497924400000000e+00 -3.92546670e-01  -7.38287220e-01  -5.97920600e-01
C     9.854284108700000e+00   5.867505822649671e+00   3.285798000000000e+00  1.02098280e+00  -1.85820000e-04   1.29498570e-01
C     9.907872666399999e+00   4.110003526222194e+00  -1.003641000000002e-01 -3.15986568e+00  -2.40631620e-01   1.04562108e+00
C     1.107840853170000e+01   4.841815766351564e+00  -1.854981000000002e-01  1.43546773e+00  -6.13577270e-01  -1.89132130e-01
C     1.109038798800000e+01   5.127939477883622e+00   3.021499800000000e+00 -3.80091210e-01   2.02245540e+00   1.10529839e+00
C     1.232266786350000e+01   5.847922626795048e+00   3.091509600000000e+00  4.59181460e-01   7.86332520e-01  -9.60092000e-03
C     3.696097267100000e+00   6.214642557253530e+00  -1.487487000000023e-01 -1.06381086e+00   1.30050978e+00   1.01149124e+00
C     4.908108482899999e+00   6.916407812695981e+00   9.858900000000000e-02  1.28453180e-01   1.94014188e+00  -1.14628480e-01
C     4.936474421100000e+00   7.280625983864033e+00   3.399648300000000e+00  7.03677000e-01   2.41916490e-01   6.31251490e-01
C     6.176950323000000e+00   8.009932024417523e+00   3.558205200000000e+00 -1.17840982e+00  -6.28808640e-01  -6.77257390e-01
C     6.144780692599999e+00   6.240449581676710e+00   2.400441000000000e-01  2.05339350e-01   2.94350190e-01  -6.48258370e-01
C     7.380118154100000e+00   6.940166243114905e+00   2.619705000000000e-01  4.82594930e-01   1.28846950e-01  -2.77111060e-01
C     7.389115009699999e+00   7.294134698443393e+00   3.570533400000000e+00  3.07887650e-01  -9.11877910e-01   2.35632780e-01
C     8.635479451500000e+00   7.974262272109733e+00   3.518287500000000e+00 -1.01415410e-01   7.03304030e-01  -1.02753010e-01
C     8.620489539999999e+00   6.246524575292602e+00   1.499979000000000e-01 -5.27520690e-01  -1.48810246e+00   7.80969900e-02
C     9.828938929400000e+00   6.947104103739800e+00   3.666390000000000e-02  6.28970080e-01   3.22829430e-01   1.85128200e-01
C     9.863063206200000e+00   7.287058847409141e+00   3.417511500000000e+00  1.10549032e+00  -2.49226260e-01  -3.35647600e-01
C     1.111869456900000e+01   8.013413549770428e+00   3.384390600000000e+00 -8.68810000e-01  -9.08885900e-01   2.17702350e-01
C     1.106370958880000e+01   6.257604966071659e+00  -7.648260000000207e-02  1.02949190e-01  -2.97653880e-01  -5.75301570e-01
C     1.228869464190000e+01   6.949735229039002e+00  -9.898559999999890e-02  1.53202953e+00  -1.19825550e-01   2.59371850e-01
C     1.235054085100000e+01   7.279282712125424e+00   3.262432500000000e+00 -4.73519870e-01   8.07445500e-01   4.65554090e-01
C     1.358064339200000e+01   8.039531479565186e+00   3.396026100000000e+00 -1.30206060e-01  -3.12886120e+00  -3.99219250e-01
