64
Lattice="7.10842262195238 0 0 0 7.10842262195238 0 0 0 7.10842262195238 " PBC="1 1 1" Properties=species:S:1:pos:R:3:force:R:3 Energy="-514.0958107"
C     2.354999088738140e-02   7.105160564859681e+00   7.079126677856194e+00 -3.66461720e-01   9.73603300e-02   7.78625190e-01
C     1.796453644024021e+00   1.788960584656052e+00   7.106108757352963e+00 -8.00153390e-01  -5.67918660e-01   4.11146410e-01
C     7.092916377980958e+00   1.765476915351716e+00   1.758447893812381e+00  9.10569660e-01   3.74690300e-01  -9.98568700e-02
C     1.781898508951535e+00   2.699139153040200e-03   1.820191084015891e+00 -7.00917590e-01  -1.11346734e+00  -1.25276987e+00
C     9.169500517719594e-01   8.603530752084241e-01   8.958162137331159e-01 -9.63861890e-01   1.04848534e+00  -3.99717380e-01
C     2.668384136069413e+00   2.675522271895964e+00   8.869638107075252e-01 -5.76758400e-02  -3.35551580e-01   6.12321120e-01
C     9.014873843835781e-01   2.647099172965668e+00   2.638769167918421e+00 -7.16253570e-01   4.98786560e-01   5.47351810e-01
C     2.658794945039259e+00   8.562139828852506e-01   2.670595353093816e+00  1.12587570e+00   1.33780943e+00  -1.50468660e-01
C     3.515634540199295e+00   7.091194362601263e+00   2.725099112448440e-02  1.54508502e+00   8.39611380e-01  -8.80275330e-01
C     5.335047323022524e+00   1.763665831436592e+00   7.059137793448754e+00 -8.07382680e-01   7.75148480e-01   1.21116934e+00
C     3.542880271091041e+00   1.752912280781282e+00   1.791308283394760e+00  6.22381310e-01   8.39174860e-01  -6.86637000e-01
C     5.370109617595674e+00   3.075743383447800e-02   1.761295954419311e+00 -1.09183991e+00  -1.11417754e+00  -8.56922200e-02
C     4.442987981728304e+00   8.947619635743438e-01   8.711904341664238e-01 -2.96484120e-01  -3.58716410e-01   3.50224630e-01
C     6.218072356756307e+00   2.641138902767250e+00   8.611804956013922e-01 -3.37252960e-01   6.35055610e-01   2.08742440e-01
C     4.450511394060860e+00   2.643357867972310e+00   2.690645156683110e+00 -1.01004140e+00   3.88470930e-01  -6.14961710e-01
C     6.189800667227817e+00   9.297794750849877e-01   2.655751687147184e+00  1.41832721e+00  -1.32102046e+00   2.41523490e-01
C     7.084274455349145e+00   3.562940168640455e+00   7.101165631347242e+00  9.86552700e-01  -2.17473680e-01   7.73675690e-01
C     1.792106772507664e+00   5.363897069478472e+00   6.560860825581399e-03 -7.99421850e-01  -7.17280860e-01  -1.97022230e-01
C     7.103004935700167e+00   5.301984769900832e+00   1.778378631322790e+00 -8.29810600e-02   1.49564578e+00  -5.20177000e-03
C     1.786711692991763e+00   3.560717293802955e+00   1.804199692153035e+00 -5.14837920e-01  -9.97855000e-03  -1.80231866e+00
C     8.787805945873812e-01   4.474311032750655e+00   8.990084641633056e-01  5.27477430e-01  -1.17786173e+00  -5.53049670e-01
C     2.649469263235629e+00   6.222507941386961e+00   9.075708435460005e-01  8.52604430e-01  -1.65957000e-03   5.34681730e-01
C     8.638047119800175e-01   6.217207190639226e+00   2.684924795748117e+00  1.93038320e-01  -3.50369040e-01  -3.47245690e-01
C     2.664134578858724e+00   4.452570348672742e+00   2.654917371584275e+00  9.57432000e-03  -1.69588780e-01   1.08323050e+00
C     3.533192628407600e+00   3.574139843899396e+00   1.703078541835320e-02  1.18565104e+00  -3.92866120e-01   3.34606740e-01
C     5.346410776338629e+00   5.351347789100898e+00   8.118529474302000e-03 -7.98913140e-01  -4.74387360e-01   4.40844380e-01
C     3.577309987135238e+00   5.334018449932505e+00   1.807210393469510e+00 -7.16420780e-01   3.76700000e-01  -5.43934880e-01
C     5.312913045584141e+00   3.526853976873120e+00   1.772423550272884e+00  3.67996750e-01   5.97965500e-02   1.44142620e-01
C     4.426445971449302e+00   4.459392159692704e+00   9.418239863723158e-01  6.78530000e-01  -7.72660710e-01  -2.00209760e+00
C     6.240614728737303e+00   6.219908959908636e+00   8.829988036543154e-01  1.75721730e-01   3.27583330e-01  -1.40105360e-01
C     4.503890387704320e+00   6.204855026820905e+00   2.663877396128333e+00 -1.03716411e+00   7.63449210e-01  -1.01193490e-01
C     6.212155874441228e+00   4.412185125073283e+00   2.637747118914118e+00  5.58325960e-01   1.35633340e-01   1.06844028e+00
C     7.108268864818729e+00   3.914231590435140e-02   3.540030575546909e+00 -2.01762820e-01  -1.04277495e+00   4.26207210e-01
C     1.797864523745638e+00   1.799642411327127e+00   3.534051112607418e+00 -4.32579480e-01  -6.75257840e-01   3.48876500e-01
C     1.377000979410680e-02   1.784042977887537e+00   5.344618671911902e+00 -1.89199670e-01   4.06303460e-01  -9.52823180e-01
C     1.785634340459476e+00   8.766888701472200e-03   5.319721208432672e+00 -5.41260370e-01  -1.14840010e-01  -1.14622618e+00
C     9.229329978385348e-01   9.102982742210682e-01   4.408178178326616e+00 -1.17714863e+00   1.72657660e-01   1.22982405e+00
C     2.662581246347802e+00   2.686085032488153e+00   4.430283666653388e+00  1.74874420e-01  -3.90279040e-01   6.18572260e-01
C     8.943213124561299e-01   2.695151185781928e+00   6.240057286235443e+00  4.16010000e-02  -8.72703230e-01  -2.91687500e-01
C     2.655665604149256e+00   8.558760484738958e-01   6.204673477707190e+00 -6.41097500e-02   1.24386828e+00   9.14813140e-01
C     3.577805515276078e+00   7.086912604236105e+00   3.511453863603795e+00 -4.94115550e-01  -8.76445000e-02   1.72126778e+00
C     5.314650344072470e+00   1.748637701922972e+00   3.569008913368054e+00 -1.07245450e-01   1.03213802e+00   3.20717130e-01
C     3.510939000553428e+00   1.747001698456979e+00   5.332362471798949e+00  1.58546019e+00   1.05381127e+00  -3.80957270e-01
C     5.347590205819739e+00   1.599537257952400e-03   5.339113411845389e+00 -5.95519870e-01  -4.71534060e-01  -2.90615200e-01
C     4.441948019498997e+00   8.591304265177842e-01   4.463754029980788e+00 -4.57367850e-01   4.07225510e-01  -9.60966650e-01
C     6.188515108996990e+00   2.652291804605352e+00   4.447686435827445e+00  6.20422140e-01   3.98300990e-01   1.06796280e-01
C     4.418709875111955e+00   2.686395670556648e+00   6.217738403061619e+00 -1.57745730e-01  -7.97091370e-01   7.86500300e-02
C     6.213968806546233e+00   8.918969138373527e-01   6.201317235967156e+00  1.17972614e+00  -1.90652460e-01   1.88860780e-01
C     7.089047903306928e+00   3.520268805242178e+00   3.529950547934845e+00  5.70674520e-01  -2.35766000e-03   9.24048780e-01
C     1.741688721222338e+00   5.294736311355217e+00   3.569549082402947e+00  6.47122020e-01   1.16418855e+00  -4.11860750e-01
C     6.345759957100200e-03   5.304789469129779e+00   5.321179430248939e+00 -1.60800430e-01   7.03643690e-01   4.00389660e-01
C     1.800044463710514e+00   3.580144328486510e+00   5.372460444040334e+00 -6.44289780e-01  -1.04321100e+00  -1.17706746e+00
C     8.882625906044254e-01   4.402355811527026e+00   4.466561572578784e+00 -3.85711580e-01   6.39864080e-01  -8.00603060e-01
C     2.631864970280294e+00   6.225298352686441e+00   4.407372154285734e+00  1.43630522e+00  -7.53892130e-01   9.85370840e-01
C     8.927727425883630e-01   6.250085351278155e+00   6.179478953246672e+00  1.45793980e-01  -1.41081789e+00   8.23410330e-01
C     2.695322427682843e+00   4.449770269918498e+00   6.237507921547006e+00 -9.35716980e-01   1.03205480e+00  -1.43843080e-01
C     3.555829044819860e+00   3.581281747189936e+00   3.544264707480512e+00  1.41985260e-01  -8.16420640e-01   5.79259650e-01
C     5.384015185009144e+00   5.325552318592084e+00   3.568893685837384e+00 -1.61434739e+00  -2.87413680e-01  -9.79365370e-01
C     3.558171554410054e+00   5.352714454433819e+00   5.330295769006411e+00 -1.44214540e-01   1.07573180e-01  -1.30866150e-01
C     5.281842983322836e+00   3.587223251152637e+00   5.346847873245533e+00  1.09851443e+00  -1.25759367e+00  -6.74080410e-01
C     4.431215225437738e+00   4.463894990001343e+00   4.442858324099714e+00  4.73661540e-01   1.67620400e-01  -4.70811000e-02
C     6.225031360332834e+00   6.202968806878688e+00   4.437974411254418e+00  8.11933480e-01   8.67824140e-01   3.98920550e-01
C     4.451055685980872e+00   6.249944106920696e+00   6.233661411898871e+00 -4.23962480e-01  -1.09749383e+00  -1.79156100e-02
C     6.209570612218560e+00   4.429310594680936e+00   6.234881785894273e+00 -2.76518690e-01   1.01889122e+00  -5.50005110e-01
