64
Lattice="7.10842262195238 0 0 0 7.10842262195238 0 0 0 7.10842262195238 " PBC="1 1 1" Properties=species:S:1:pos:R:3:force:R:3 Energy="-500.63106848"
C     7.045547058073123e+00   7.029152902984618e+00   1.561869726489020e-02 -5.86037200e-02   3.49802501e+00  -2.95407020e-01
C     1.749381456181702e+00   1.881679508352701e+00   7.090300976046382e+00  3.14953680e-01  -5.39027270e+00  -1.14555720e+00
C     1.295595323566440e-02   1.707051581406090e+00   1.761783592211043e+00 -1.15569375e+00   1.93736980e-01  -6.86613050e-01
C     1.771798791008813e+00   7.024178002329784e+00   1.719447888528882e+00  1.86071799e+00   3.52878021e+00  -2.93346450e-01
C     8.741827246683127e-01   8.919612450620638e-01   7.738889947435660e-01  5.57569490e-01  -1.37911761e+00   3.81192424e+00
C     2.619509038997983e+00   2.583864920033387e+00   8.750864895202196e-01 -1.08830275e+00   5.06786185e+00   1.33390240e+00
C     7.105233781612668e-01   2.617715086381374e+00   2.653735027649891e+00  6.24462458e+00   1.45228081e+00   2.54701300e+00
C     2.699503601867927e+00   7.992156647805903e-01   2.680100593652828e+00 -4.48880740e+00   3.61355576e+00  -2.39660003e+00
C     3.615185795381383e+00   4.314201205994680e-02   7.099479371333326e+00  7.78726280e-01   5.46956310e-01  -6.82078500e-02
C     5.368470344255275e+00   1.944609094291490e+00   7.099239390985674e+00 -1.26302170e-01  -4.32195235e+00   1.02587064e+00
C     3.605899778575973e+00   1.889941485795475e+00   1.672028240988898e+00 -1.77673584e+00  -4.83980249e+00   4.39975792e+00
C     5.326128029740079e+00   7.087660054874599e+00   1.661345561307110e+00 -2.13819552e+00   2.13901971e+00   3.30822690e+00
C     4.461671333237355e+00   1.040856042366239e+00   8.394499765678259e-01  1.93567985e+00  -3.33949667e+00  -4.89224940e-01
C     6.358487445632858e+00   2.697851604451039e+00   9.253964216974958e-01 -6.13105011e+00  -1.99121194e+00   6.95646440e-01
C     4.433430209926130e+00   2.628667246364687e+00   2.670156479081257e+00  2.39622785e+00   1.50928693e+00   3.35005520e-01
C     6.223549467469243e+00   8.060787046517477e-01   2.644071269266453e+00  6.51810780e-01   7.56872380e-01  -5.50077250e-01
C     7.034937666228547e+00   3.514483757661344e+00   7.103229490770732e+00  5.11975619e+00   2.41409441e+00  -2.50554880e-01
C     1.841483724216066e+00   5.384026416316883e+00   7.041988297372646e+00 -7.00059550e-01  -1.81804020e+00   1.46332407e+00
C     1.878350918376660e-02   5.318501332026854e+00   1.812375728766332e+00 -2.09786903e+00  -7.46209890e-01  -1.21986228e+00
C     1.669488330502546e+00   3.550578337367370e+00   1.771886651112396e+00  9.52703420e-01   1.24474590e-01   9.29511400e-01
C     8.143647085629769e-01   4.501091304129243e+00   8.531843020803804e-01  3.44959553e+00  -1.77043381e+00  -1.43782370e-01
C     2.868505283395034e+00   6.261363503522821e+00   8.528505616383714e-01 -8.38698131e+00  -1.28114228e+00   4.32466440e-01
C     8.702086899183755e-01   6.211668876407532e+00   2.632138004793128e+00  1.51038455e+00   4.04551690e-01   8.24282320e-01
C     2.555826315682606e+00   4.512327445596225e+00   2.733731509793942e+00  3.39967058e+00  -3.20536924e+00  -3.16712671e+00
C     3.447564214105950e+00   3.451683971519597e+00   4.324195648198400e-03  3.18650267e+00   2.99912399e+00  -4.65003740e-01
C     5.335344810509171e+00   5.229114694686009e+00   7.063079698128448e+00 -2.08087773e+00   9.20000280e-01   1.23349195e+00
C     3.487564090115178e+00   5.365712844952525e+00   1.815077142614611e+00  2.15967165e+00  -2.67252011e+00  -1.89918568e+00
C     5.430014001035842e+00   3.520115121145134e+00   1.906287090357486e+00 -2.29595405e+00   6.28250500e-02  -3.35334196e+00
C     4.344163491674885e+00   4.360775448832467e+00   8.517459838474496e-01  2.79229102e+00   1.41784868e+00   2.82841592e+00
C     6.128869187803284e+00   6.146480447012786e+00   8.813287508439726e-01  2.57363727e+00   7.32481400e-02  -2.39041750e-01
C     4.355137261262962e+00   6.272736766462142e+00   2.596729103533027e+00  4.08368999e+00  -1.93621235e+00   1.00374076e+00
C     6.300090189956581e+00   4.398182812027955e+00   2.730132728674115e+00 -2.76417255e+00   3.55372494e+00  -6.47635700e-02
C     7.071780691752234e+00   7.024504563264947e+00   3.516683245788424e+00 -2.91607070e-01   2.11776029e+00   2.77854764e+00
C     1.582697831270977e+00   1.694970959331853e+00   3.652454046746198e+00  6.87144597e+00   3.02422682e+00  -5.27727850e+00
C     2.788683952784340e-02   1.788439110772649e+00   5.429187717990493e+00 -2.62804828e+00  -1.60243188e+00  -2.07379382e+00
C     1.895078671738722e+00   7.093400816982511e+00   5.464175160873455e+00 -3.33161823e+00   2.57416901e+00  -3.03702115e+00
C     8.766139473728052e-01   9.660762183303270e-01   4.557707615602305e+00 -1.48024394e+00  -6.77688699e+00  -2.00321770e-01
C     2.586534345979875e+00   2.527450914268090e+00   4.446604676073133e+00  9.65329090e-01   4.66704163e+00  -8.88604840e-01
C     8.474333038438956e-01   2.662222910763528e+00   6.175017707210359e+00  1.84824533e+00   2.57140630e+00   3.60993406e+00
C     2.760672076102610e+00   9.256843838978319e-01   6.241655543977323e+00 -1.26745087e+00  -1.61663190e-01  -4.21024380e-01
C     3.590806749163831e+00   4.834658584963220e-02   3.464863840067791e+00  9.10316430e-01  -4.56752590e-01   4.55274551e+00
C     5.496155812072382e+00   1.728338961373526e+00   3.639895098913861e+00 -1.03214070e+00   2.59319545e+00  -4.13186667e+00
C     3.628293939945342e+00   1.839215995231833e+00   5.302739044625040e+00 -1.12334445e+00  -2.50800736e+00   5.54917990e-01
C     5.213242937575847e+00   1.339120195268700e-02   5.387842501916204e+00  3.27602151e+00  -2.67815150e-01  -1.64524262e+00
C     4.598021115217527e+00   9.667092233646379e-01   4.395795732627933e+00 -5.63608354e+00  -2.61379517e+00   2.91794423e+00
C     6.375135655745802e+00   2.749703779999951e+00   4.507650743270300e+00 -4.47226799e+00  -2.90987949e+00  -9.63997100e-02
C     4.451687411499112e+00   2.727334711362430e+00   6.245690142487983e+00  2.63270170e-01  -1.97551640e-01  -2.72008902e+00
C     6.143666649002886e+00   8.839339877342026e-01   6.266620395302990e+00  1.25791752e+00   7.26225800e-01  -3.22031530e-01
C     4.053741492775260e-02   3.639768426822772e+00   3.667534352081849e+00  2.46266230e-01  -1.01972129e+00  -3.58669696e+00
C     1.841007388816299e+00   5.442935762758704e+00   3.559661195454302e+00 -3.21154446e+00  -9.72183630e-01   1.67514008e+00
C     1.393549387270040e-02   5.361626283872513e+00   5.364995889447072e+00 -8.21805170e-01   5.97809050e-01  -1.27400310e-01
C     1.699189026230335e+00   3.543907722496536e+00   5.283656057596293e+00  3.14015616e+00   6.55898160e-01   5.62723170e-01
C     9.301561503996215e-01   4.608397137547489e+00   4.430373446031078e+00 -3.17526380e-01  -3.61597986e+00   1.11874857e+00
C     2.703710082037539e+00   6.227585985254009e+00   4.530542565307297e+00  7.25869350e-01   6.21555240e-01  -2.83257520e+00
C     8.567841494636008e-01   6.310628355406505e+00   6.246698116815499e+00  2.41080587e+00  -3.49454441e+00  -7.05040360e-01
C     2.740634214663319e+00   4.326221122139742e+00   6.150460523921951e+00 -4.53914640e+00   2.68670867e+00   6.62330870e-01
C     3.562247666108815e+00   3.499055992628027e+00   3.551334886786817e+00 -2.68040419e+00  -1.21734690e-01  -9.33341430e-01
C     5.311038625623473e+00   5.380525944681890e+00   3.556593555672640e+00 -9.29713640e-01  -2.15961108e+00  -1.32085693e+00
C     3.595862401499628e+00   5.243907393242456e+00   5.276683050427204e+00 -9.71208220e-01   1.06649300e-01   7.65755470e-01
C     5.351819006436378e+00   3.602284932421024e+00   5.248770975999060e+00  6.92320670e-01  -1.64306046e+00   3.17442057e+00
C     4.455866666410089e+00   4.363868252430204e+00   4.354290221623563e+00 -2.88171100e-02   2.85971993e+00   1.15600778e+00
C     6.069233787075056e+00   6.209829998559965e+00   4.521858205392443e+00  4.35811586e+00   3.35594030e-01  -1.61484172e+00
C     4.395212770888866e+00   6.136363668855776e+00   6.183990313662455e+00  1.88577756e+00   1.78043315e+00   1.04152786e+00
C     6.269588303915292e+00   4.368846920549025e+00   6.233124228401478e+00 -2.74098093e+00   3.01250117e+00  -2.01231855e+00
