64
Lattice="7.10842262195238 0 0 0 7.10842262195238 0 0 0 7.10842262195238 " PBC="1 1 1" Properties=species:S:1:pos:R:3:force:R:3 Energy="-514.03541908"
C     7.099674781871149e+00   7.066808279045317e+00   7.106596608397374e+00  1.25466074e+00   1.56016709e+00   1.74298710e-01
C     1.787653914410044e+00   1.782917927839469e+00   1.976923414848200e-03 -7.06479140e-01  -6.43101310e-01  -1.69246730e-01
C     1.151678199201920e-02   1.754867878928271e+00   1.789192248149238e+00 -5.96150620e-01   6.08758790e-01  -1.56303360e-01
C     1.787550486860923e+00   7.097078857014552e+00   1.790854979284282e+00  3.62888210e-01   2.51065710e-01  -7.77653540e-01
C     9.042449547705548e-01   8.790894555502202e-01   9.017357526699210e-01 -6.16284380e-01  -2.04428600e-02  -3.91909610e-01
C     2.677994368030522e+00   2.655254381900690e+00   8.803552523661636e-01 -8.20246080e-01   5.76707210e-01  -1.99266300e-02
C     9.073735137340692e-01   2.671690903188011e+00   2.660035293702223e+00 -3.99635520e-01  -8.05125610e-01   3.10213400e-01
C     2.697292313759298e+00   8.960443940992180e-01   2.652016211060374e+00 -1.48410096e+00  -7.22720630e-01   4.83052850e-01
C     3.557268287147731e+00   2.508121620395560e-02   7.067096525582558e+00 -5.65292900e-02  -1.22982386e+00   1.44868327e+00
C     5.318277061293193e+00   1.771566061252234e+00   7.099448378610703e+00  1.78808940e-01  -1.19370520e-01   2.14478950e-01
C     3.544896290830299e+00   1.765223073579955e+00   1.746451933051548e+00  7.64908920e-01   2.92084780e-01   9.54373320e-01
C     5.346157361072226e+00   7.089735714279639e+00   1.773347076539675e+00  6.10743000e-03   6.06617710e-01   3.13923600e-02
C     4.454567815428963e+00   8.758456690560356e-01   8.759087918489011e-01 -3.27540660e-01   4.20778090e-01  -2.75030930e-01
C     6.176770502059999e+00   2.655207324142945e+00   9.012862871076585e-01  8.87996870e-01  -6.00407880e-01  -9.96886800e-02
C     4.402494425768116e+00   2.673471278717416e+00   2.666475595680169e+00  1.13286961e+00  -2.01576700e-02  -7.02268220e-01
C     6.222284452579788e+00   8.703704065329806e-01   2.688016106577102e+00  1.43048400e-01   7.28027470e-01  -1.45580419e+00
C     7.066529415625935e+00   3.513967046421096e+00   2.648633810325100e-02  9.47453760e-01   9.94750950e-01  -2.38950420e-01
C     1.780541937578734e+00   5.345393916482839e+00   1.701813242608960e-02 -2.52104430e-01  -5.59199900e-02  -1.92292680e-01
C     7.107776108962710e+00   5.306659695121101e+00   1.772954762695277e+00  3.36353050e-01   1.31551930e-01   9.62629680e-01
C     1.781058719903208e+00   3.549132981796046e+00   1.763554015948780e+00 -5.12741800e-02  -1.51534110e-01   1.01870034e+00
C     8.604162690855161e-01   4.423178727160471e+00   9.302481333883242e-01  9.23871090e-01  -1.34237000e-01  -2.09125844e+00
C     2.684460686835257e+00   6.221826456910381e+00   9.060198568145426e-01 -6.02293700e-01   2.20927430e-01  -1.08384036e+00
C     9.203554127122965e-01   6.182339880098543e+00   2.637551281870937e+00 -9.20828430e-01   1.48053787e+00   1.18869029e+00
C     2.669028870001047e+00   4.440868605524151e+00   2.669097537363556e+00  3.01405860e-01   7.47289200e-02   5.41511000e-03
C     3.528365014269454e+00   3.569587254632417e+00   1.360793775837080e-02  5.47660580e-01   5.34061000e-02  -7.46591980e-01
C     5.350983055936266e+00   5.359019127708176e+00   1.802063326818820e-02 -8.94566220e-01  -5.03536880e-01  -7.10017440e-01
C     3.537952428193953e+00   5.321443010559689e+00   1.761737316379786e+00  8.71607300e-01   8.40620380e-01   7.41913610e-01
C     5.298474844063755e+00   3.564542904688586e+00   1.765293802385024e+00  1.98005080e-01  -3.88674460e-01   5.37613150e-01
C     4.415582026990703e+00   4.470283542662616e+00   8.683577277523538e-01  8.56853880e-01  -4.61021940e-01   7.97839120e-01
C     6.266472753365172e+00   6.205049300011109e+00   8.910603946634312e-01 -1.60173297e+00  -1.05103690e-01   4.59993190e-01
C     4.447292771382749e+00   6.240051528413121e+00   2.653629609742436e+00 -4.43094380e-01  -1.76353039e+00   3.72174400e-01
C     6.224113307551462e+00   4.417735026033848e+00   2.680211342877247e+00 -7.41358180e-01   6.04652360e-01  -8.87466430e-01
C     6.279154037150800e-03   9.199365133672999e-03   3.533379011248697e+00  6.65235980e-01  -1.15432592e+00   7.58324820e-01
C     1.805630546542215e+00   1.757458401383677e+00   3.560037159926673e+00 -3.54241420e-01   1.77574001e+00  -7.16530670e-01
C     7.415719729862600e-03   1.763882496158050e+00   5.318900398872741e+00 -5.91885770e-01   1.89785920e-01   3.12854890e-01
C     1.762130696487577e+00   1.967924151811280e-02   5.331491476775321e+00  2.16073750e-01  -3.32721090e-01  -2.93179330e-01
C     9.149822271380648e-01   9.258325945094591e-01   4.430505804860262e+00 -1.01821479e+00  -1.69584633e+00  -5.54670800e-02
C     2.656995661105685e+00   2.679292152748255e+00   4.445588313806926e+00  4.08106060e-01  -2.51605070e-01   5.07636620e-01
C     8.772650788847972e-01   2.646063689042613e+00   6.229876105769495e+00 -3.04854070e-01   9.60992100e-01   8.72360100e-02
C     2.625561647606235e+00   8.706221868621810e-01   6.210397037432362e+00  2.00269486e+00   1.29980362e+00  -9.00705900e-02
C     3.528579972969482e+00   7.106573506023859e+00   3.557126331948009e+00  1.83927081e+00   4.96179410e-01  -5.30725520e-01
C     5.323666738407904e+00   1.789182865031380e+00   3.526103967202484e+00 -2.35950720e-01  -2.93215970e-01   2.71160500e-02
C     3.566959626210934e+00   1.769410645345397e+00   5.315539465573779e+00 -9.80707870e-01   8.48767750e-01   2.91126950e-01
C     5.342890969794110e+00   2.947571415186580e-02   5.300262256931553e+00 -2.38650080e-01  -1.65112258e+00  -3.21118180e-01
C     4.460429349637188e+00   9.097922966989765e-01   4.383601162539097e+00 -8.49774420e-01  -5.50601570e-01   2.01440858e+00
C     6.175417484898508e+00   2.647974219790190e+00   4.428488861026064e+00  1.67277155e+00   1.03421484e+00   7.98354750e-01
C     4.405571519751862e+00   2.697378112420321e+00   6.240210543827129e+00  1.07307528e+00  -1.31646706e+00  -8.94390470e-01
C     6.220540401089971e+00   8.276171541061216e-01   6.215406627189581e+00  1.61975800e-01   2.45416206e+00  -1.84945240e-01
C     7.108361416481242e+00   3.552482541618816e+00   3.541439749247098e+00  5.09247950e-01  -2.74822850e-01   1.04207271e+00
C     1.814051965904355e+00   5.354809306579932e+00   3.555570227152265e+00 -1.10464247e+00  -9.39353370e-01   3.25771140e-01
C     2.746765584594200e-03   5.311822613554233e+00   5.358052382231856e+00  4.35211340e-01   1.12582840e+00  -6.56649750e-01
C     1.762692190790331e+00   3.587978449971786e+00   5.361665024775792e+00  5.71679000e-01  -1.29145481e+00  -6.34736580e-01
C     9.262408312205256e-01   4.466625690550816e+00   4.474170854656589e+00 -1.63548939e+00  -6.41176650e-01  -1.00606561e+00
C     2.660804496113933e+00   6.239000761381432e+00   4.463452703945927e+00  3.88351180e-01  -1.57836130e-01  -6.50661760e-01
C     9.139195890406010e-01   6.253575657868801e+00   6.218517628349224e+00 -1.27917207e+00  -1.74716099e+00   3.94623310e-01
C     2.664558951689138e+00   4.470159145266765e+00   6.219873488879762e+00 -4.67816350e-01  -6.78568300e-01   9.36770710e-01
C     3.553789425117503e+00   3.557801561012683e+00   3.572922881946852e+00 -3.45195750e-01   2.04037280e-01  -2.60074960e-01
C     5.325415694709328e+00   5.298649498007528e+00   3.549441629506206e+00  3.92786820e-01   1.50604082e+00   1.70858980e-01
C     3.550700175731077e+00   5.330377089361184e+00   5.341840629267779e+00  4.79404650e-01   1.05113995e+00  -4.69356000e-02
C     5.316672548139406e+00   3.574536422797366e+00   5.347519121593540e+00  4.90706000e-03  -5.06842090e-01   8.72646200e-02
C     4.449780719299750e+00   4.467707308136675e+00   4.472663726892697e+00 -5.93273600e-01  -9.58563920e-01  -9.99300250e-01
C     6.232884816727636e+00   6.200511496263180e+00   4.420499278338088e+00 -2.71640100e-02   4.47208040e-01   6.74059500e-01
C     4.462676748532727e+00   6.244588194813431e+00   6.204315639712499e+00 -4.76255390e-01  -1.20533800e-01   5.34080000e-03
C     6.208489776559190e+00   4.448131636336135e+00   6.256599083261766e+00  5.00709420e-01  -5.50802980e-01  -7.93406880e-01
