64
Lattice="7.10842262195238 0 0 0 7.10842262195238 0 0 0 7.10842262195238 " PBC="1 1 1" Properties=species:S:1:pos:R:3:force:R:3 Energy="-510.17677141"
C     2.803895977191140e-02   1.690574826446740e-02   2.449029303155500e-02 -5.71294800e-02  -1.13613420e+00  -6.65088940e-01
C     1.793240281578650e+00   1.721627970662210e+00   3.775496506160600e-02 -8.92469000e-01   2.76626210e-01  -4.25378140e-01
C     7.079876118853020e+00   1.784207111365832e+00   1.736544000351113e+00  5.13341320e-01  -7.27368230e-01   2.81046194e+00
C     1.815821110126020e+00   7.025520214688893e+00   1.833375217617658e+00 -5.09798630e-01   2.69277602e+00  -2.40693033e+00
C     9.143548377576236e-01   8.446976984828147e-01   9.899389087287621e-01 -8.40867660e-01   2.76531040e-01  -2.71792183e+00
C     2.676097911959732e+00   2.640484572465080e+00   8.424596827051339e-01 -2.44931130e-01   9.04422590e-01   1.19813126e+00
C     9.049614126864246e-01   2.675822105162076e+00   2.697156116381898e+00 -1.42558734e+00  -2.51952590e-01  -2.05340241e+00
C     2.689353982798413e+00   9.279577285359342e-01   2.549838749141328e+00 -5.88696090e-01  -2.27122530e+00   4.70459773e+00
C     3.531661260922574e+00   1.835273877299460e-02   7.077848156963761e+00  3.94353240e-01   5.45967900e-02  -9.29904200e-01
C     5.340348926780972e+00   1.781916706513442e+00   7.067159861628102e+00 -1.92797339e+00  -9.99509170e-01   6.10805940e-01
C     3.544869989666606e+00   1.762315515475697e+00   1.731783276469820e+00  8.92489650e-01   1.69955302e+00  -2.75705710e-01
C     5.260235226747917e+00   1.254558399781180e-02   1.770342275213975e+00  3.55154089e+00   1.00116048e+00  -1.54728958e+00
C     4.394458140743528e+00   8.841014621711297e-01   8.469405479878772e-01  1.25706330e+00   5.68332570e-01  -8.79501200e-02
C     6.158535549849818e+00   2.580186311327537e+00   8.867693242646419e-01  1.65914241e+00   4.24701004e+00  -2.43639400e-01
C     4.416212615161323e+00   2.643602539878890e+00   2.687342938954989e+00  4.58794000e-02   1.17635110e+00  -6.28517330e-01
C     6.151411062194697e+00   9.652808569233751e-01   2.634395781985692e+00  2.43164349e+00  -3.25394245e+00   5.66598750e-01
C     7.089690291459097e+00   3.530373214743830e+00   7.480001195615259e-02 -6.19945300e-01   8.04928020e-01  -1.02684785e+00
C     1.733204747741142e+00   5.356624015790593e+00   5.292917266006759e-02  1.52065026e+00  -1.35587130e-01  -1.55622742e+00
C     7.089867006845431e+00   5.300836404226571e+00   1.863702805136305e+00  5.88045720e-01   1.08702957e+00  -1.71079385e+00
C     1.779411271876797e+00   3.533321717362380e+00   1.763278351319576e+00  2.75443350e-01   7.35180430e-01   7.91757070e-01
C     8.432337188442258e-01   4.442828610893164e+00   9.646531832060292e-01  6.34098320e-01  -4.22781720e-01  -1.09664180e+00
C     2.696037321745737e+00   6.257355277260082e+00   8.407845118305048e-01 -2.10163511e+00  -1.25062465e+00   1.77562803e+00
C     9.505251221645530e-01   6.150877219655935e+00   2.694007156245465e+00 -1.86917638e+00   1.05532533e+00   7.39965100e-02
C     2.680829562392509e+00   4.461259684483431e+00   2.639669307474792e+00 -5.32163020e-01  -3.68403700e-01   8.27272800e-01
C     3.520549090346085e+00   3.580811809370528e+00   7.087839897966885e+00  1.04153210e+00  -1.83355100e-02   5.23258090e-01
C     5.342073145771679e+00   5.344697148897626e+00   7.354637054288940e-02  2.93921880e-01   5.63898560e-01  -3.22232170e+00
C     3.513007196114717e+00   5.402280561268139e+00   1.753575852032859e+00  1.97117557e+00  -2.12349578e+00  -4.62762400e-02
C     5.311824390659888e+00   3.581132967904500e+00   1.760986951288019e+00 -1.04711255e+00  -1.93287514e+00   1.06356545e+00
C     4.404635766998165e+00   4.497950518678822e+00   8.954590865806873e-01  5.98119140e-01  -1.75784395e+00  -1.99611950e-01
C     6.269962420197782e+00   6.210855033101769e+00   9.046001626488761e-01 -1.46998665e+00   6.80775200e-01   8.31770070e-01
C     4.488442861256120e+00   6.230327632774317e+00   2.595917748175180e+00 -2.77505227e+00  -6.98204830e-01   2.59485102e+00
C     6.161470688633842e+00   4.448102705056073e+00   2.685476196090750e+00  2.39079247e+00  -1.42449642e+00  -3.12785850e-01
C     9.076929662466120e-02   7.098915246914202e+00   3.516392369134814e+00 -2.78875530e+00   1.08272070e-01   4.76517690e-01
C     1.808571372064335e+00   1.818127366760853e+00   3.504734129532657e+00  3.98712500e-02  -1.04830306e+00   8.54500920e-01
C     3.120270542739480e-02   1.768980585776888e+00   5.313935023504219e+00 -1.09098010e+00   4.64901840e-01   1.40177905e+00
C     1.803785057861610e+00   7.106872273026577e+00   5.203289724223323e+00 -4.52592200e-02  -9.90479330e-01   3.42018897e+00
C     9.464467357705542e-01   8.587043476659413e-01   4.400266077445199e+00 -1.28849663e+00   2.59858801e+00  -6.16393480e-01
C     2.665580858524989e+00   2.731780318868978e+00   4.432300255066455e+00  2.02774210e-01  -2.38433454e+00   1.15390409e+00
C     8.980816680221100e-01   2.687864626091070e+00   6.370635668806210e+00 -1.66657740e-01  -2.51393067e+00  -3.33990216e+00
C     2.613843555085618e+00   8.362769188787104e-01   6.166052138096659e+00  1.90662153e+00   2.22873224e+00   7.23035900e-02
C     3.576278555013076e+00   7.067604493462984e+00   3.515207750505191e+00  4.66985700e-01   2.10151687e+00  -6.68782910e-01
C     5.302113787771384e+00   1.751271941177491e+00   3.565724253443805e+00 -3.13183180e-01   1.52175306e+00  -1.98920940e-01
C     3.571165182285605e+00   1.767334417266548e+00   5.259059493646569e+00 -1.31405480e+00   7.30618500e-01   2.45979868e+00
C     5.359279082723389e+00   3.465874942101260e-02   5.274330091455758e+00  8.27177950e-01  -2.23376914e+00   2.78604618e+00
C     4.448495018900470e+00   8.555062683292034e-01   4.469143351674368e+00 -3.21479280e-01   6.57324420e-01  -2.86392046e+00
C     6.126105077667497e+00   2.694535951804167e+00   4.434529527484313e+00  3.08453149e+00  -1.55851986e+00   1.00547774e+00
C     4.429869743204224e+00   2.693403224659670e+00   6.206316092006220e+00 -4.42189130e-01  -7.73270360e-01   3.50233770e-01
C     6.219231953738307e+00   8.750545016184296e-01   6.233650180591132e+00  1.33153226e+00   8.53704100e-01  -1.40384819e+00
C     2.475223840510200e-03   3.520524210866915e+00   3.574359423074128e+00 -1.63487665e+00   4.01802410e-01   2.75966440e-01
C     1.775056723264011e+00   5.300457098795567e+00   3.578838297998538e+00  7.41578600e-01  -1.98649268e+00   2.68897100e-02
C     4.084265059505540e-02   5.255941810569663e+00   5.357074263279343e+00 -6.93456780e-01   2.48180494e+00  -8.84741200e-01
C     1.772826029161629e+00   3.522490684900512e+00   5.470021056551916e+00  3.99734480e-01   6.34623260e-01  -3.03728423e+00
C     8.761742914337582e-01   4.310351284303688e+00   4.527242337937508e+00  7.39607610e-01   3.18816430e+00  -1.31797907e+00
C     2.685457500939260e+00   6.215101675859182e+00   4.356630172181615e+00 -3.19233940e-01   1.08582600e-01   1.70274111e+00
C     9.407795458367592e-01   6.230805247690155e+00   6.188966564917585e+00 -1.72302380e+00  -6.11412530e-01   5.48919570e-01
C     2.644322907427201e+00   4.490994216302890e+00   6.237774913900613e+00  1.42756660e-01  -2.68388780e-01   3.25027400e-01
C     3.568127753300079e+00   3.596756996486355e+00   3.595712342698120e+00 -5.71486690e-01  -3.67237000e-03  -1.65843843e+00
C     5.313855267002422e+00   5.310930151094293e+00   3.518693081200003e+00  1.03013068e+00   1.71348543e+00   1.32408586e+00
C     3.547453759120523e+00   5.423845169717754e+00   5.324200083357082e+00  3.28603180e-01  -2.12082202e+00   3.23529630e-01
C     5.290398112114459e+00   3.584889698174944e+00   5.398330268649752e+00  1.29336792e+00   5.85665400e-01  -2.94917520e+00
C     4.443644373473035e+00   4.509250778117837e+00   4.459649129170417e+00 -5.96680230e-01  -9.86752870e-01   3.96533230e-01
C     6.289388744039075e+00   6.201432392413601e+00   4.421390603450410e+00 -1.06508361e+00   2.29917720e-01  -3.35854900e-01
C     4.462435559753231e+00   6.275612194496158e+00   6.222629211076858e+00  4.34176200e-02  -9.62273270e-01  -3.10692160e-01
C     6.242800853029858e+00   4.458089470163363e+00   6.198656624464717e+00 -1.35559650e+00  -1.22008783e+00   3.45493005e+00
