64
Lattice="7.10842262195238 0 0 0 7.10842262195238 0 0 0 7.10842262195238 " PBC="1 1 1" Properties=species:S:1:pos:R:3:force:R:3 Energy="-511.52160158"
C     7.076876933181190e+00   1.176252016199260e-02   2.246467692175980e-02  5.30826330e-01   9.38540910e-01   6.20972000e-02
C     1.788764889781324e+00   1.731822372794231e+00   5.039800553353799e-02 -5.85740260e-01   7.04085810e-01  -2.42847849e+00
C     7.070976018311650e+00   1.849581639264770e+00   1.823175768505577e+00  1.72230935e+00  -2.00703467e+00  -5.21789910e-01
C     1.715747243712910e+00   5.394453974710840e-02   1.790065375699653e+00  1.92771332e+00  -2.03455410e+00   1.13388773e+00
C     8.425115031060337e-01   9.125854091990533e-01   9.407472025138381e-01  4.25905730e-01   2.08574000e-02  -7.77585150e-01
C     2.729212045776372e+00   2.621565434577724e+00   8.139530598090527e-01 -1.21518342e+00   1.51612778e+00   2.17861026e+00
C     9.604017067212335e-01   2.698508209448449e+00   2.629701806192802e+00 -2.01359946e+00   4.45997100e-02   7.65884180e-01
C     2.653497250913252e+00   8.503583486677994e-01   2.737140993619398e+00 -3.58334610e-01   2.70495441e+00  -2.48766409e+00
C     3.555839209864206e+00   7.093199079948556e+00   7.072887473154168e+00 -2.57553050e-01   5.38882030e-01   9.78734890e-01
C     5.350441749553752e+00   1.743362968002027e+00   4.397490593833220e-02  6.45741710e-01   1.82500802e+00  -8.17699530e-01
C     3.590853238247766e+00   1.798636285189492e+00   1.776408176572525e+00 -1.59221050e+00  -1.03781400e+00   7.32747200e-01
C     5.321303898729016e+00   8.073035569533999e-03   1.810594571310439e+00 -1.28945240e-01  -5.95011380e-01   1.13208347e+00
C     4.467668922654527e+00   8.980940366774688e-01   9.801924793902540e-01 -3.50058460e-01  -8.79496090e-01  -3.58089349e+00
C     6.230639692527336e+00   2.711595597418357e+00   9.411895596534807e-01 -1.20891608e+00  -8.40755330e-01  -1.30101846e+00
C     4.403829885125736e+00   2.720119520234678e+00   2.642382308051941e+00  8.61807260e-01  -1.44359231e+00   1.27102356e+00
C     6.208035903774903e+00   8.999415157164068e-01   2.709437693563603e+00 -3.98267120e-01   7.79833870e-01  -6.71917400e-01
C     5.888048624598400e-03   3.559791990430509e+00   7.093774435675418e+00  3.04803520e-01  -2.77137820e-01   1.14072592e+00
C     1.706444522114342e+00   5.375315115480300e+00   7.067443772027545e+00  2.40220752e+00  -1.63950047e+00   8.49894680e-01
C     3.665877520937580e-02   5.326379952237732e+00   1.739898820406622e+00 -1.80312935e+00   9.14974120e-01   2.00774332e+00
C     1.804782582807875e+00   3.580004790150479e+00   1.719313397172912e+00  2.69389750e-01  -3.52504040e-01   8.77725500e-02
C     8.822962071625545e-01   4.489183629977350e+00   8.524025888448590e-01  8.50569080e-01  -1.60023948e+00  -2.27650800e-02
C     2.601808142579243e+00   6.232830579463045e+00   8.396419750627923e-01  1.39021365e+00   4.00793110e-01   7.23495780e-01
C     8.822466614568932e-01   6.241185037484105e+00   2.710599494156616e+00  1.89820290e-01  -9.84100790e-01  -1.74866364e+00
C     2.654260624418413e+00   4.451440607065745e+00   2.648291539775947e+00  7.63546900e-01  -1.11983955e+00  -5.68613760e-01
C     3.598072552260638e+00   3.523182760926795e+00   7.034798909819005e+00  1.93402310e-01   4.69595670e-01   1.60839838e+00
C     5.375270972175829e+00   5.358952735040905e+00   2.469693487711840e-02 -8.73622530e-01  -1.58274764e+00  -1.64270115e+00
C     3.576838343294401e+00   5.318320422671175e+00   1.697234423262513e+00 -2.38024007e+00   1.01830798e+00   2.08263738e+00
C     5.280176626892255e+00   3.577744951515355e+00   1.802895652023396e+00  2.17351751e+00   7.50880430e-01  -1.83945112e+00
C     4.488191436348050e+00   4.466868585351741e+00   8.310354523756271e-01 -1.48584283e+00  -1.20775359e+00   1.30915965e+00
C     6.198462351274513e+00   6.213174795739580e+00   9.227641728013098e-01  7.06631030e-01   1.39376576e+00  -5.71804630e-01
C     4.354946471199841e+00   6.210601760003818e+00   2.697380955789369e+00  2.92301303e+00  -3.35238700e-02  -1.65173801e+00
C     6.230603226319295e+00   4.445459224852146e+00   2.625890696489315e+00 -5.49283370e-01  -4.66239900e-02   1.30065523e+00
C     3.043400060526800e-03   8.063297030544600e-03   3.580599054281511e+00 -3.75162920e-01   7.78565430e-01  -1.09564391e+00
C     1.789631193246023e+00   1.857287027216397e+00   3.550519835049208e+00  9.38006200e-01  -3.47760539e+00   1.08673078e+00
C     7.084552323589361e+00   1.812243156684469e+00   5.295043039791270e+00  9.23337410e-01  -8.53769580e-01   1.36178009e+00
C     1.692432470530024e+00   7.072374245041003e+00   5.313095021203213e+00  2.30945396e+00   2.05483421e+00   8.14360310e-01
C     8.536924832134842e-01   9.181813016539695e-01   4.461977350831146e+00  8.26416460e-01  -1.62627570e-01  -1.22050211e+00
C     2.753268725028107e+00   2.632706252097371e+00   4.492877521791833e+00 -3.05081508e+00   6.47817510e-01  -1.62846804e+00
C     8.872589524147075e-01   2.630669475764062e+00   6.231612195825978e+00  1.58321020e-01   5.96947500e-01   2.75611930e-01
C     2.667632775798479e+00   8.917059105215535e-01   6.179969292238999e+00 -6.60757170e-01  -1.73817616e+00   1.86128782e+00
C     3.512240339482472e+00   7.079992483731309e+00   3.588619203186752e+00  2.97608580e-01   3.92334200e-01  -1.42518200e-02
C     5.282036901091909e+00   1.834619760249968e+00   3.551493902200826e+00  9.90316330e-01  -2.49301524e+00   3.32557230e-01
C     3.594304164177098e+00   1.723078870803178e+00   5.343796014162088e+00 -3.74366790e-01   9.17367110e-01   1.94787900e-02
C     5.388511759905877e+00   7.043080222171305e+00   5.353871421299450e+00 -8.76447370e-01   2.58931290e+00  -1.74965371e+00
C     4.438450106896147e+00   8.550099582618750e-01   4.477347182220109e+00  7.96738620e-01  -8.88106600e-02  -1.12044048e+00
C     6.217507521494921e+00   2.667267829381168e+00   4.410783059795715e+00 -4.02751260e-01   7.59481080e-01   1.61831560e-01
C     4.505106425561923e+00   2.634323631496099e+00   6.192715333754695e+00 -9.63964210e-01  -2.67952750e-01   9.59191630e-01
C     6.277090959653797e+00   9.489093066188008e-01   6.199880979176786e+00 -2.56501262e+00  -3.02099704e+00   1.69519442e+00
C     1.593701242981380e-02   3.517733728483208e+00   3.538036307580868e+00 -2.98588290e-01   1.92053926e+00  -6.42613300e-01
C     1.758721710251704e+00   5.265068883045291e+00   3.562643818501428e+00  8.42493620e-01   2.42033326e+00  -5.24874930e-01
C     7.108113048194899e+00   5.336401690784312e+00   5.296109729689628e+00 -2.60795720e-01  -1.09051024e+00   8.62516270e-01
C     1.775413708247987e+00   3.478219144486247e+00   5.360941671689981e+00  1.37583705e+00   2.15595914e+00  -6.70136600e-01
C     8.699873336379887e-01   4.417624347893655e+00   4.425525359635786e+00  9.60668450e-01  -8.65287430e-01   1.14501268e+00
C     2.644226943721831e+00   6.209348474011685e+00   4.454979179845981e+00 -8.75277460e-01  -1.13232341e+00   5.41789600e-01
C     8.184809828495403e-01   6.239504677460964e+00   6.243242072821881e+00  1.05219223e+00  -3.53931020e-01  -1.87640772e+00
C     2.699724176221826e+00   4.404856554604742e+00   6.228079523036516e+00 -1.97865769e+00   1.45066924e+00  -1.00874370e+00
C     3.551881666654747e+00   3.523372911231880e+00   3.565273366197018e+00 -3.18781470e-01   2.19959687e+00   1.49336940e-01
C     5.327810806626911e+00   5.345283238342645e+00   3.545482593527997e+00 -4.15444320e-01  -9.46793610e-01  -4.12873330e-01
C     3.575127061632862e+00   5.346551807443410e+00   5.349251444186033e+00 -1.36359633e+00  -1.59884327e+00  -8.24914960e-01
C     5.339459378774305e+00   3.548652239174255e+00   5.315566975169318e+00  6.38794320e-01   2.37813160e-01   5.80605400e-01
C     4.421940297771615e+00   4.440784939389913e+00   4.468763975159137e+00  1.36823890e+00   6.29591600e-02  -1.29527009e+00
C     6.249458317318845e+00   6.204123072543724e+00   4.375872032455919e+00 -1.21783307e+00   1.21878430e-01   2.78371520e+00
C     4.466826503489830e+00   6.185799265050792e+00   6.182322606631576e+00  6.58458300e-01   1.28758213e+00   2.41628156e+00
C     6.256107038248009e+00   4.423098757405996e+00   6.240455286817936e+00 -1.23396159e+00   1.15989281e+00  -1.70708411e+00
