64
Lattice="7.10842262195238 0 0 0 7.10842262195238 0 0 0 7.10842262195238 " PBC="1 1 1" Properties=species:S:1:pos:R:3:force:R:3 Energy="-506.12498154"
C     7.083089054793034e+00   1.741456915560700e-02   3.640692379594920e-02  9.01267860e-01  -4.84020600e-02  -1.54885834e+00
C     1.808446477078901e+00   1.772175608491899e+00   2.103808758615200e-03  5.33922600e-01  -4.81245160e-01  -3.84006600e-01
C     9.606116184412020e-02   1.769443557342128e+00   1.763215583947841e+00 -4.87269994e+00   1.83781802e+00   3.02576696e+00
C     1.700516808491524e+00   7.076020652592385e+00   1.755757711271842e+00  2.17118326e+00   3.03324906e+00   5.44105130e-01
C     8.726222126505442e-01   9.833465575909741e-01   9.146959709591573e-01  2.44867923e+00  -4.86364706e+00  -3.02308582e+00
C     2.680341711348098e+00   2.579934246661431e+00   9.274351173049118e-01  1.52019440e-01   3.97492664e+00  -1.25504643e+00
C     8.666709701488540e-01   2.672239815582727e+00   2.743311246622011e+00  1.87707594e+00   1.14479600e-01  -2.30644067e+00
C     2.682448789981119e+00   9.506299003139718e-01   2.662163128929294e+00 -1.79530731e+00  -3.23951429e+00   1.58786381e+00
C     3.564707749009145e+00   6.998948788766881e+00   7.087336124055806e+00 -1.47907623e+00   2.92644753e+00   1.12826280e+00
C     5.292332313909361e+00   1.859589800724146e+00   4.923542301403700e-02  1.27353230e-01  -5.56655431e+00  -1.74094885e+00
C     3.586410545194493e+00   1.749083400021246e+00   1.759959713135203e+00 -1.71291630e+00   2.40048340e-01   2.51826723e+00
C     5.304981609793198e+00   7.092488450939234e+00   1.830091623956801e+00  2.21174445e+00   1.88860115e+00  -1.93209001e+00
C     4.363560102309626e+00   8.154794513982454e-01   9.601900178956098e-01  3.36180576e+00   8.94110490e-01  -2.54539049e+00
C     6.183626931098121e+00   2.671425616855832e+00   8.469651431301424e-01  2.25752830e+00   3.51585000e-01   2.57919047e+00
C     4.463762773340611e+00   2.704314937718274e+00   2.634886689651829e+00  9.73468280e-01  -2.02607051e+00  -5.81622100e-02
C     6.303638216938902e+00   8.737196820188460e-01   2.646268056192938e+00 -3.13773291e+00   9.85812780e-01   1.42823780e+00
C     5.887806938229320e-02   3.508326868493257e+00   8.933389284500459e-02 -1.59215714e+00   1.00203386e+00  -4.78768587e+00
C     1.696082787713847e+00   5.352138387864694e+00   7.087133605095362e+00  2.87346009e+00  -3.37048328e+00   1.21698318e+00
C     1.048613179634540e-02   5.341540298412084e+00   1.733024691396177e+00 -1.61211187e+00  -1.11595064e+00   1.30026461e+00
C     1.757605261395006e+00   3.584388980885591e+00   1.745495636956479e+00  3.82069365e+00  -3.53013932e+00   3.71575819e+00
C     9.354154590434810e-01   4.366023099663230e+00   9.060353531758542e-01 -2.52655652e+00   3.81012596e+00  -9.65834710e-01
C     2.612843400022983e+00   6.135452937749702e+00   9.015811444779359e-01 -4.27763530e-01   3.08334734e+00  -1.26163917e+00
C     7.919929387248605e-01   6.281339806022223e+00   2.640782273204405e+00  3.55894792e+00  -3.00378797e+00  -2.36486270e-01
C     2.773512801807605e+00   4.387528281699742e+00   2.647451679643394e+00 -4.16601438e+00   2.41476171e+00  -1.40781327e+00
C     3.647036007025234e+00   3.557330556929882e+00   6.227134600417641e-02 -5.44248091e+00   4.36555400e-01  -2.23910118e+00
C     5.339220322521594e+00   5.334456328765897e+00   7.102869662417707e+00  1.29335713e+00   1.46665179e+00  -2.78739319e+00
C     3.558647818725595e+00   5.377933645120829e+00   1.741016477695165e+00  8.30248920e-01  -2.33490125e+00   1.69622572e+00
C     5.330894795780599e+00   3.561075629387229e+00   1.721166989455303e+00 -3.34931610e-01   1.25856693e+00   1.64501459e+00
C     4.460605140928581e+00   4.531590062464579e+00   8.165258112079093e-01  2.97697160e-01  -2.66633645e+00   3.00601907e+00
C     6.236615814508196e+00   6.243658128797830e+00   8.296982869965790e-01 -1.63142193e+00  -1.46160619e+00   3.03383197e+00
C     4.463818787710856e+00   6.282983842005778e+00   2.683442973968752e+00 -1.00094217e+00  -2.19432269e+00   7.07558240e-01
C     6.148034561450197e+00   4.399095035902780e+00   2.676406417501440e+00  2.59213607e+00   2.21887255e+00  -1.23039560e+00
C     7.080435693881667e+00   7.063317688117766e+00   3.563678733750673e+00  1.50670398e+00   3.95698235e+00  -8.25584510e-01
C     1.803454587294006e+00   1.790412906481545e+00   3.681720062430773e+00 -1.43114794e+00  -8.68315160e-01  -5.19137969e+00
C     7.226337134420560e-02   1.737949051166182e+00   5.320840571742644e+00 -3.58169859e+00   2.42865167e+00   2.75917447e+00
C     1.707849288592507e+00   7.078996593722247e+00   5.313264130577344e+00  2.53274897e+00  -6.08656370e-01   1.34753730e+00
C     8.608822261882570e-01   9.105737255975932e-01   4.502288646835356e+00  2.49642528e+00  -2.80687850e+00  -2.55252289e+00
C     2.713293515245370e+00   2.662564399386193e+00   4.378510181342879e+00 -2.60957240e-01   4.85027160e-01   3.69074441e+00
C     9.470177553596189e-01   2.674324573768720e+00   6.212981873149672e+00 -1.96717960e-01  -9.77712130e-01   3.30836550e-01
C     2.691269773778729e+00   8.479090705698522e-01   6.236860059909419e+00 -1.39196544e+00  -3.24074940e-01  -1.21750190e+00
C     3.533411923245428e+00   7.092234751335926e+00   3.589121839750213e+00  4.02651500e-02   1.90350710e+00  -2.52175152e+00
C     5.336148630939040e+00   1.908953459682248e+00   3.680581293127050e+00 -9.53892300e-01  -4.89709936e+00  -5.89303449e+00
C     3.612737370294151e+00   1.785672725941624e+00   5.279753249241008e+00 -5.18240303e+00   4.38321300e-01   3.97566707e+00
C     5.295404431997271e+00   5.628228669414780e-02   5.324231289332384e+00  1.26424866e+00  -1.55896857e+00  -1.45438370e-01
C     4.322044781682041e+00   9.276938638882798e-01   4.449376463305351e+00  6.59407026e+00  -1.48618027e+00  -6.80818940e-01
C     6.240578404697715e+00   2.678844179954743e+00   4.462381393572866e+00  2.30386650e-01   5.64599250e-01   2.44664216e+00
C     4.357470032314168e+00   2.623266337942237e+00   6.263485367674892e+00  4.05089094e+00   2.08322712e+00  -1.01950646e+00
C     6.247557240773352e+00   8.205899096724421e-01   6.230551832423752e+00 -1.72328589e+00   4.02728164e+00  -4.18841040e-01
C     7.096346902737371e+00   3.545046349631808e+00   3.533451161738290e+00 -7.08588550e-01   1.49529763e+00   1.85477977e+00
C     1.768180674979459e+00   5.392936752986827e+00   3.494683246453334e+00 -1.71636150e-01  -3.23116902e+00   8.91368000e-02
C     7.095269905626214e+00   5.345392068292957e+00   5.323704839553146e+00  3.05758900e-02  -1.28054974e+00   8.12681000e-02
C     1.839500687557764e+00   3.541008907752100e+00   5.299732110772553e+00 -1.39892981e+00   2.06119552e+00   7.81376260e-01
C     8.901527912633095e-01   4.491779270497044e+00   4.455839938741038e+00  5.13440370e-01  -1.72190318e+00  -2.07591972e+00
C     2.668618571847420e+00   6.150820707696106e+00   4.345250156240804e+00 -1.31470284e+00   3.25880411e+00   2.91756458e+00
C     8.427116052027868e-01   6.130205286918939e+00   6.237337248319899e+00 -1.52372700e-02   4.92588899e+00  -4.83015780e-01
C     2.624352291665894e+00   4.531448818107120e+00   6.197832260693476e+00  1.45491535e+00  -3.63757443e+00   3.50646210e-01
C     3.578377103538951e+00   3.475255856348648e+00   3.503336329308660e+00  2.91658710e-01   3.87756130e+00   3.96913750e-01
C     5.340533674684866e+00   5.376294442864657e+00   3.584304532824865e+00 -4.49043210e-01  -1.88319998e+00  -1.15677401e+00
C     3.512631515979250e+00   5.310693582789498e+00   5.278545101732512e+00  1.20401765e+00   8.49736580e-01   5.94949330e-01
C     5.305279452700976e+00   3.523352225722056e+00   5.408128731641838e+00  1.15195256e+00   1.47428211e+00  -2.06579816e+00
C     4.438079047235385e+00   4.460434894206831e+00   4.429476718517565e+00  1.28249360e-01  -1.76663679e+00   9.34522790e-01
C     6.289781910894188e+00   6.238928539807613e+00   4.420294129261276e+00 -4.29344057e+00  -5.49590920e-01   1.53221520e+00
C     4.459061760209327e+00   6.221784872638054e+00   6.173378860375319e+00 -6.48701840e-01  -8.68666180e-01   1.99734370e-01
C     6.223919389782387e+00   4.460283911310382e+00   6.181920625332416e+00 -3.27592540e-01  -1.36066027e+00   2.50991104e+00
