64
Lattice="7.10842262195238 0 0 0 7.10842262195238 0 0 0 7.10842262195238 " PBC="1 1 1" Properties=species:S:1:pos:R:3:force:R:3 Energy="-510.55344505"
C     1.411967310278460e-02   7.080089940205430e+00   7.103922419807731e+00 -9.62155140e-01   1.00372679e+00   1.28435181e+00
C     1.704264439981015e+00   1.785154308679947e+00   7.016587059982339e+00  2.21859827e+00   2.27419400e-02   3.34383911e+00
C     1.589350888337940e-02   1.665640612422566e+00   1.792604575343743e+00 -1.56331948e+00   2.04352749e+00   6.90166910e-01
C     1.817690412022402e+00   6.720871418757600e-03   1.747231513760283e+00 -5.78046840e-01  -2.11980920e-01  -1.66923270e-01
C     9.246336879503697e-01   8.662610274163586e-01   8.937403410753973e-01 -1.66959526e+00  -8.08822200e-02  -1.67276838e+00
C     2.563971430657507e+00   2.608168332634262e+00   8.862751467240996e-01  2.09848968e+00   9.89540260e-01  -3.27116930e-01
C     8.225363379542504e-01   2.620320820861187e+00   2.707506761643107e+00  1.01438882e+00   1.30854034e+00  -8.08485350e-01
C     2.662605557153162e+00   8.585360202182998e-01   2.632874366292334e+00  7.24753230e-01   9.83716500e-02   1.87266068e+00
C     3.591343435071641e+00   5.267206101390220e-02   7.065672708531772e+00 -4.41198430e-01  -1.51664353e+00  -7.58486170e-01
C     5.377738376751457e+00   1.833105950568812e+00   2.507453428669280e-02 -1.44066773e+00  -2.51383466e+00  -1.13461402e+00
C     3.542613491990113e+00   1.717710163535197e+00   1.810070538394893e+00 -4.11465210e-01   1.72951551e+00  -2.50261788e+00
C     5.304286690397867e+00   7.065375860803162e+00   1.774747151458910e+00  5.64075300e-01   5.96834830e-01  -2.10422327e+00
C     4.465151332615202e+00   8.859831327228700e-01   8.178427886667168e-01 -5.23683820e-01   6.67794600e-01   2.94133533e+00
C     6.186850174250933e+00   2.603607426512817e+00   9.992650170377498e-01  1.84603651e+00   2.06727514e+00  -1.93643910e+00
C     4.396509418258981e+00   2.666468771594454e+00   2.661717786252150e+00  4.29410050e-01  -1.27692602e+00   1.49933924e+00
C     6.165889141965981e+00   7.932071283925828e-01   2.656566312379437e+00  2.86029942e+00   1.87518761e+00   4.72705820e-01
C     7.091894400060880e+00   3.605896011111984e+00   1.043777319726154e-01 -7.12338490e-01  -1.59760402e+00  -2.20821582e+00
C     1.811386023084950e+00   5.307516117878358e+00   7.094663415008275e+00 -1.06228460e-01   1.77849747e+00  -5.46767810e-01
C     5.704587345198820e-02   5.298127171113411e+00   1.779865997671798e+00 -2.50041926e+00   2.56854508e+00   4.90007350e-01
C     1.668994508383134e+00   3.565185577177660e+00   1.826331339475048e+00  1.74171486e+00  -2.31725095e+00  -2.38777784e+00
C     8.996478667779747e-01   4.492837785709387e+00   8.861437119898558e-01  5.84512000e-02  -1.86127739e+00   1.03219014e+00
C     2.694883482586058e+00   6.254086469118275e+00   8.128409470901538e-01 -1.10223420e-01  -1.55702063e+00   1.90940980e+00
C     9.421712328173028e-01   6.270577369838639e+00   2.685758187216086e+00 -7.44124240e-01  -2.04312310e+00  -1.15690124e+00
C     2.572556343739907e+00   4.379897816522529e+00   2.640668893863616e+00  2.07198795e+00   3.25085181e+00   1.90782477e+00
C     3.566110738381654e+00   3.462852725140141e+00   7.082011702260747e+00 -1.66900656e+00   1.80388769e+00   1.27422452e+00
C     5.300118880047308e+00   5.311610142802121e+00   6.021260464497200e-03  1.09001960e-01   3.47006940e-01   9.12436990e-01
C     3.489534047275858e+00   5.287580191219438e+00   1.768784322228349e+00  1.46325538e+00  -7.75761800e-02  -9.72487180e-01
C     5.286978178907749e+00   3.512778589243259e+00   1.829709759493655e+00  9.73630760e-01   1.90877040e-01  -2.82651610e-01
C     4.399861608198121e+00   4.334549136828656e+00   9.415846457827003e-01  1.86492250e-01   2.56904423e+00  -2.31467011e+00
C     6.187571323725732e+00   6.207915842516851e+00   8.782065183765900e-01  1.53465696e+00  -8.62020370e-01   7.50310950e-01
C     4.452775142328425e+00   6.203097042822752e+00   2.610208947515785e+00 -1.42778185e+00  -1.80834069e+00   1.06369451e+00
C     6.217466932401761e+00   4.414569076767354e+00   2.687580218102045e+00  1.81932710e-01   1.45730933e+00  -1.13723662e+00
C     2.027983214527660e-02   7.060809125775168e+00   3.545276520356243e+00 -5.39990300e-01   2.19830854e+00   1.10989199e+00
C     1.761398315705038e+00   1.791524877031991e+00   3.572726831650993e+00 -1.20644460e-01  -9.95219400e-01  -1.01970380e-01
C     3.829321482239240e-02   1.792735796825308e+00   5.363573494080810e+00 -2.78153834e+00   9.45376860e-01  -7.93416600e-01
C     1.844157415216126e+00   1.043664295806496e-01   5.356926052667717e+00 -1.29342521e+00  -4.25130187e+00  -1.48842801e+00
C     9.063804670940552e-01   9.231265601864773e-01   4.485349986574158e+00 -1.67974690e-01  -8.88763150e-01  -1.31805251e+00
C     2.571937129045479e+00   2.654472242159811e+00   4.516044724121127e+00  3.53958106e+00   9.80910260e-01  -3.51756798e+00
C     8.086599861577484e-01   2.726273423865264e+00   6.241024955806703e+00  1.86059741e+00  -5.60540660e-01   6.23051700e-02
C     2.717960692284983e+00   9.161635758932825e-01   6.157605057328860e+00 -5.10135030e-01   1.58916266e+00   2.09470593e+00
C     3.595069954545950e+00   7.041973867274728e+00   3.497997619584135e+00 -1.19926574e+00   2.34472846e+00   1.57248456e+00
C     5.395511423659792e+00   1.771889849902575e+00   3.533439361756741e+00 -2.45677984e+00   2.52992900e-01   4.19557160e-01
C     3.587089541723155e+00   1.810972526141144e+00   5.283826944076078e+00 -7.97619120e-01  -1.30475409e+00   6.18964920e-01
C     5.350591666186808e+00   2.088831312154860e-02   5.315340571908871e+00 -6.02781370e-01   3.45553700e-01  -2.28254830e-01
C     4.431173570081185e+00   8.823562022494673e-01   4.381909144702859e+00  1.64464888e+00   6.90663150e-01   6.42997550e-01
C     6.261934878533016e+00   2.728307783334881e+00   4.441003949890836e+00 -9.62048590e-01  -1.81419807e+00   2.71367120e-01
C     4.484774559763069e+00   2.655954135023402e+00   6.188624365452658e+00 -8.11605950e-01   4.02462580e-01   3.81953520e-01
C     6.193727644220009e+00   8.980973065518740e-01   6.242756141051578e+00  2.40935733e+00   3.97690020e-01  -7.40678170e-01
C     4.734635970277200e-03   3.621686518951599e+00   3.551033631836181e+00  1.39638120e-01  -1.97608394e+00   1.64358553e+00
C     1.805673765751744e+00   5.400698581814058e+00   3.569722812251781e+00 -1.82502400e-01  -1.63322462e+00   5.69527700e-01
C     7.092342301770167e+00   5.413525517179169e+00   5.364677929703279e+00  1.42494340e+00  -2.29500275e+00   6.04514800e-02
C     1.754188171557346e+00   3.576197447910981e+00   5.304614104343743e+00 -5.62880640e-01   8.71305750e-01   2.52817915e+00
C     9.310975188071881e-01   4.521000076613755e+00   4.476118135949112e+00 -1.99989752e+00  -3.27013750e-01  -1.41071888e+00
C     2.734714391389609e+00   6.228349358759171e+00   4.484785009144320e+00 -9.58229870e-01   1.68012290e-01  -2.12943834e+00
C     9.137677531334378e-01   6.249701709709354e+00   6.252734731472855e+00  1.65539760e-01   1.14990300e-02  -1.30365814e+00
C     2.688581226175393e+00   4.448082232798927e+00   6.190279632743952e+00  3.96516330e-01  -1.45509996e+00   6.78228150e-01
C     3.500057569375185e+00   3.571735846453538e+00   3.544309632711471e+00  3.59042780e-01  -1.11741300e+00   7.19073980e-01
C     5.334291200108434e+00   5.343777176842145e+00   3.526368116187043e+00  7.17870750e-01  -2.93174700e-01   5.69212650e-01
C     3.611895661971716e+00   5.301159410950424e+00   5.305974727517438e+00 -1.16862997e+00   1.98664630e+00   1.21763736e+00
C     5.309033623939277e+00   3.573596476074324e+00   5.313381988224383e+00  2.23619618e+00  -1.79500000e-05   6.90670500e-01
C     4.471966390633675e+00   4.469968284119418e+00   4.429961868361380e+00 -1.30803366e+00  -1.03343717e+00  -9.61973190e-01
C     6.236242551236419e+00   6.241823089498476e+00   4.443875823713542e+00 -2.00569770e-01  -5.16951860e-01  -2.42087160e-01
C     4.483401141428659e+00   6.242231681630675e+00   6.179100500826383e+00 -9.68390110e-01  -1.18844175e+00   1.07310660e+00
C     6.216656572223081e+00   4.467978920964986e+00   6.291125473853594e+00 -4.90109910e-01  -1.65018270e-01  -1.71549693e+00
