64
Lattice="7.10842262195238 0 0 0 7.10842262195238 0 0 0 7.10842262195238 " PBC="1 1 1" Properties=species:S:1:pos:R:3:force:R:3 Energy="-512.1112912"
C     7.107379387896288e+00   5.263730082729039e-02   7.084355775703918e+00 -2.57082930e-01  -1.12471544e+00   9.66098470e-01
C     1.846056430319059e+00   1.741097940218390e+00   1.017428529600600e-03 -1.43361556e+00   8.58604840e-01   3.47045400e-02
C     7.080859924543628e+00   1.859206016986892e+00   1.806435077814346e+00  1.86550346e+00  -2.11310931e+00  -1.04601137e+00
C     1.744882037915921e+00   6.317326266620200e-03   1.791689294847192e+00 -3.11486900e-02  -7.05144140e-01  -5.08045210e-01
C     8.999954686440926e-01   8.913838278926413e-01   8.860534350225817e-01 -6.11864800e-01   1.13695807e+00   5.15053850e-01
C     2.722312752949852e+00   2.683462948636314e+00   8.710963186509350e-01 -1.19394970e+00  -1.49566667e+00   8.43143630e-01
C     8.965254210579133e-01   2.686242057543829e+00   2.689896355444318e+00 -5.51123420e-01  -4.36352480e-01   2.59484680e-01
C     2.606869410568909e+00   8.796835775127998e-01   2.680976635656517e+00  1.67079676e+00   9.59469850e-01  -5.69114550e-01
C     3.510997787208496e+00   7.065506371442464e+00   7.082746357738524e+00  1.26831398e+00  -1.88781090e-01   3.21931750e-01
C     5.281377310557000e+00   1.700016020117945e+00   2.257855385213220e-02  9.09505940e-01   2.99397197e+00   4.76698700e-02
C     3.564526697485013e+00   1.750046306949351e+00   1.781334100195507e+00  1.83124120e-01   3.94342860e-01  -5.20270610e-01
C     5.380755475648290e+00   2.869968765444040e-02   1.784794764663828e+00 -1.57411545e+00  -1.00662867e+00   4.24920220e-01
C     4.442373956182388e+00   8.134793545256559e-01   8.703355041779164e-01 -9.18142010e-01   1.15634568e+00   1.19326051e+00
C     6.241102366529035e+00   2.644643781624267e+00   8.562026094090586e-01 -1.05095769e+00   4.56952290e-01   1.43857140e-01
C     4.491527276915164e+00   2.646569524396252e+00   2.644681314095701e+00 -1.12280528e+00   9.77233130e-01   2.69068320e-01
C     6.225471513861464e+00   9.753687038003220e-01   2.692582983773548e+00  6.22351490e-01  -2.02806651e+00  -7.27090090e-01
C     3.153253623696280e-02   3.494878443738479e+00   7.027438422532899e+00 -1.77057010e-01   1.08978039e+00   3.12064282e+00
C     1.748981394156649e+00   5.269532901366424e+00   6.293591243492021e-02 -2.71315630e-01   1.97831105e+00  -1.76910737e+00
C     7.046567401055998e+00   5.305699844814723e+00   1.769944487884159e+00  1.66476328e+00   7.50078660e-01  -2.52327280e-01
C     1.825997243611908e+00   3.491705954723173e+00   1.805785794492236e+00 -1.68181670e+00   2.04268213e+00  -1.28486680e+00
C     8.247228887521624e-01   4.377400911993028e+00   8.999000025283059e-01  2.06495369e+00   5.03749950e-01  -9.02126600e-02
C     2.636773478267856e+00   6.244457399837223e+00   8.979648766384635e-01  3.98238980e-01  -1.60017530e+00   7.76266400e-02
C     8.594894018600941e-01   6.184366278134826e+00   2.651448319177263e+00 -3.80979160e-01   1.58505091e+00   7.99595500e-02
C     2.667912634397028e+00   4.480367337738668e+00   2.615911039804644e+00  1.15850221e+00  -1.53891339e+00   1.20583664e+00
C     3.514976726770041e+00   3.612855227941191e+00   7.089459694229304e+00  2.14558943e+00  -1.30862814e+00   1.01594617e+00
C     5.348615027108865e+00   5.365132726582507e+00   7.053158188340809e+00 -5.27479680e-01  -9.44555000e-01   1.56051964e+00
C     3.577294704026604e+00   5.379308271887085e+00   1.780097590080758e+00 -6.62073170e-01  -4.53561130e-01  -6.02775640e-01
C     5.363748219108810e+00   3.560604909641333e+00   1.742591775231983e+00 -7.45459830e-01  -2.07983080e-01   1.64260940e-01
C     4.450414577344775e+00   4.481834231830532e+00   8.867467194807104e-01 -6.05480100e-02   8.83686000e-03  -8.46836900e-01
C     6.212945691278536e+00   6.252666774952608e+00   8.838415071559164e-01  4.94046220e-01  -4.11739370e-01  -6.78046530e-01
C     4.456575447229529e+00   6.219243824804083e+00   2.687168071758537e+00 -6.33375400e-02   7.18899550e-01  -4.18906500e-01
C     6.220623000960814e+00   4.448977183206785e+00   2.672767615962262e+00 -7.93916490e-01  -6.42044150e-01   1.73437500e-02
C     7.106272179988998e+00   7.597652698398880e-02   3.584568042051389e+00 -3.45949890e-01  -2.52410941e+00  -5.08705530e-01
C     1.750027540713634e+00   1.788775410246801e+00   3.556983879158705e+00  9.57987560e-01  -1.10878480e-01   1.45514769e+00
C     7.702686751032000e-04   1.854193583860626e+00   5.416482763157541e+00  8.88418980e-01  -2.36587261e+00  -2.38456820e+00
C     1.769434956150758e+00   7.029183042696526e+00   5.347674227375108e+00 -5.65075140e-01   1.64637934e+00  -7.07831050e-01
C     8.908979672065641e-01   8.940342743507342e-01   4.500406905199389e+00 -5.18293400e-01   3.37955440e-01  -6.60592210e-01
C     2.698812378852359e+00   2.706960905870117e+00   4.449533204024122e+00 -3.58434150e-01  -1.02648545e+00  -1.01606297e+00
C     9.943347572769702e-01   2.663578060451805e+00   6.209860280440325e+00 -1.96787242e+00   2.14931100e-01   1.46791810e-01
C     2.641989496617960e+00   8.086156296005995e-01   6.204876636425670e+00  9.09925450e-01   1.64243083e+00   5.74040120e-01
C     3.541570046633723e+00   2.975820286678460e-02   3.533485993009128e+00  1.34105790e-01  -9.74714900e-01   1.02280034e+00
C     5.339815439663341e+00   1.781713405626510e+00   3.558490509333014e+00  2.21553790e-01   1.26697323e+00   1.29823380e+00
C     3.509510776280618e+00   1.766594359387580e+00   5.389304420112233e+00  2.00222878e+00   3.10856140e-01  -2.08595583e+00
C     5.337228044913886e+00   3.276485238236600e-03   5.314619138097167e+00 -5.13858560e-01   4.88708010e-01   3.15839220e-01
C     4.491781616276508e+00   8.984853553426997e-01   4.439576223207609e+00 -2.78282559e+00   1.22048830e-01   1.33448020e-01
C     6.224155887002955e+00   2.697426876199494e+00   4.525951590558169e+00  1.63461000e-02  -7.17119620e-01  -2.08424480e+00
C     4.424709099466331e+00   2.663189656239848e+00   6.289324057393234e+00 -6.95808720e-01  -4.43358200e-01  -1.14911532e+00
C     6.186896165745285e+00   9.590887810633194e-01   6.222713872390262e+00  1.10641287e+00  -2.55528726e+00   1.46075540e-01
C     7.087092944917975e+00   3.574379824247047e+00   3.598448801069915e+00  4.63223060e-01  -7.41819720e-01  -1.40274625e+00
C     1.739207881727958e+00   5.279126215281698e+00   3.492190891314309e+00  8.65993280e-01   2.01109549e+00   9.15524750e-01
C     7.105586572627298e+00   5.301412826216827e+00   5.308074057969803e+00 -4.99167500e-02   9.54922040e-01   4.80585080e-01
C     1.800236248952801e+00   3.596995484065256e+00   5.283881892182930e+00  5.15765700e-02  -1.33612108e+00   7.63611450e-01
C     8.847361021426433e-01   4.425387385152732e+00   4.394144730390212e+00  5.91007900e-02   9.90095150e-01   1.50319099e+00
C     2.633074041883730e+00   6.203724076782063e+00   4.404526510542496e+00  8.90289470e-01  -4.49909340e-01  -9.45451300e-02
C     8.593762357719837e-01   6.206660352913707e+00   6.238379200907539e+00  2.81120820e-01  -8.90517200e-01  -2.25512110e-01
C     2.656154592541286e+00   4.455860695335088e+00   6.184269603587195e+00 -1.08571020e-01   6.30422800e-01   7.74197420e-01
C     3.624391344842736e+00   3.606946351638315e+00   3.534163141347909e+00 -1.49730484e+00  -2.27563898e+00   3.07915100e-02
C     5.334066787206321e+00   5.300292538811915e+00   3.566705357933817e+00  3.50527200e-02   1.25997999e+00   7.40576200e-02
C     3.564490728866555e+00   5.326730255304445e+00   5.273886312631591e+00 -6.97685250e-01  -1.46559940e-01   8.51127010e-01
C     5.326609269951453e+00   3.528996455450788e+00   5.388251378385307e+00 -2.70413990e-01   2.09912590e-01  -5.27060420e-01
C     4.489938899880725e+00   4.403629925197436e+00   4.466623060434446e+00 -1.10690676e+00   1.24188321e+00  -7.41590800e-01
C     6.184517758620859e+00   6.217943552138432e+00   4.452004162811059e+00  1.80040928e+00   2.60800800e-01  -5.13729630e-01
C     4.415284397335603e+00   6.207067807698285e+00   6.160061017344070e+00  8.28826910e-01   4.37469100e-01   1.05254274e+00
C     6.243215060815926e+00   4.403281185983698e+00   6.214548285158216e+00 -3.67171140e-01   1.15111922e+00  -3.86184500e-01
