64
Lattice="7.10842262195238 0 0 0 7.10842262195238 0 0 0 7.10842262195238 " PBC="1 1 1" Properties=species:S:1:pos:R:3:force:R:3 Energy="-511.2557924"
C     7.061690285843143e+00   4.290693652390340e-02   4.570324781415900e-02  7.77857680e-01  -1.86938341e+00  -2.46171420e+00
C     1.814145441661808e+00   1.764422309771813e+00   7.090189942485058e+00 -1.44690660e+00  -5.66481820e-01  -5.62921520e-01
C     5.346671157859200e-03   1.774417818238925e+00   1.801701650275914e+00  1.49173167e+00  -9.69346000e-02  -1.59080351e+00
C     1.807930050175558e+00   6.139843170644040e-02   1.839842176180429e+00 -1.40403324e+00  -2.45436594e+00  -1.90130262e+00
C     9.063793297464360e-01   8.672243608498210e-01   8.358268135584119e-01  3.12096700e-02   1.81508242e+00   3.34418959e+00
C     2.689557070432666e+00   2.636013090300195e+00   8.473778581474596e-01 -8.26435830e-01   1.43214557e+00   2.19106272e+00
C     9.033109791225130e-01   2.682438980357903e+00   2.615541757249535e+00  6.99953570e-01  -9.86944500e-02   1.05312038e+00
C     2.661011635549080e+00   9.053114314162334e-01   2.774916786359281e+00 -3.44490300e-01  -3.66347800e-01  -3.42193501e+00
C     3.565860592989656e+00   7.064014384618752e+00   7.104184791686635e+00 -1.34947725e+00   2.47880418e+00   1.08994319e+00
C     5.360033712868728e+00   1.792449824983306e+00   7.061306359937437e+00 -8.58531230e-01   1.25182870e-01   2.08862979e+00
C     3.512060638558638e+00   1.790136033420496e+00   1.792886495384852e+00  2.03159881e+00  -1.80758470e-01   1.09714904e+00
C     5.307813321028101e+00   3.034038267936260e-02   1.770014363678514e+00  5.06765970e-01   1.41339000e-02   1.45764603e+00
C     4.418311092602973e+00   9.377365722815896e-01   9.095481934662059e-01  1.11304566e+00  -1.66455337e+00  -1.10765626e+00
C     6.312344470795425e+00   2.682814944830274e+00   9.167635978466367e-01 -3.47717606e+00  -1.12842816e+00  -6.75318910e-01
C     4.466039885442702e+00   2.671086900517989e+00   2.725600114074698e+00 -7.26006170e-01   1.21162843e+00  -3.30612077e+00
C     6.266527701472024e+00   8.824689418322206e-01   2.661956487083730e+00 -1.88748800e+00   5.09233420e-01   7.79441300e-02
C     2.566353818498600e-02   3.505438787466977e+00   2.805865010256880e-02  8.33861600e-02   1.46327911e+00  -2.55797382e+00
C     1.761218046107395e+00   5.382161877063657e+00   7.055143428610124e+00 -5.32980000e-02  -1.93976253e+00   1.98844206e+00
C     7.107772270414496e+00   5.351612151338135e+00   1.750496909859233e+00  1.57215815e+00  -7.28477240e-01   2.92554250e-01
C     1.780031552834618e+00   3.572601225823297e+00   1.679317999469934e+00  5.87491920e-01  -8.74760000e-03   2.75490003e+00
C     9.062907588005908e-01   4.432205713045609e+00   8.162185140980468e-01 -4.35636450e-01   1.39379482e+00   9.69318060e-01
C     2.636118294954971e+00   6.246744890236338e+00   9.066599702714737e-01  1.12501316e+00   1.53986820e-01  -1.38840690e-01
C     9.283854423249795e-01   6.175084313130309e+00   2.680709287881778e+00 -1.05853126e+00   2.78456499e+00  -2.54311120e-01
C     2.671163813650738e+00   4.531179479974048e+00   2.706261934673892e+00  1.00249529e+00  -3.70706196e+00  -2.82915630e+00
C     3.559550304061430e+00   3.550778937053707e+00   4.824024384723700e-02  1.05800107e+00  -1.50043370e-01  -1.74029813e+00
C     5.329543484640537e+00   5.369121617935719e+00   4.485571058517640e-02  6.64762890e-01  -1.15637681e+00  -2.27910550e+00
C     3.561531847950981e+00   5.393956527295892e+00   1.800918444271643e+00 -8.11709690e-01  -1.26634534e+00  -6.66196750e-01
C     5.390256948743313e+00   3.582211813205537e+00   1.781326423099077e+00 -1.97057859e+00  -4.97116810e-01  -7.60684270e-01
C     4.449049973454414e+00   4.512985898783515e+00   8.750162583047340e-01 -1.74870270e-01  -2.46148878e+00   2.03836670e+00
C     6.218627098057572e+00   6.224836376300368e+00   9.258237089811840e-01 -6.43857690e-01   1.49652449e+00  -9.78279170e-01
C     4.414291919369399e+00   6.236484095437047e+00   2.690487918374755e+00  1.48294370e-01   1.63165070e+00  -8.14498060e-01
C     6.226575522978577e+00   4.484850264463972e+00   2.597512025200393e+00  4.90975560e-01  -5.35715420e-01   2.05111592e+00
C     3.028045867667600e-03   1.820417274023660e-02   3.578455580524677e+00 -6.55137360e-01  -2.45759069e+00  -1.00641643e+00
C     1.780626598892139e+00   1.764560781844450e+00   3.575714714930857e+00 -5.00048990e-01   1.19856263e+00   3.57789400e-02
C     7.047868953237720e+00   1.742121553075670e+00   5.280077890902064e+00  2.58251095e+00  -4.69943110e-01   1.82607032e+00
C     1.745593164514825e+00   7.038977667140398e+00   5.337286333979371e+00 -6.46631950e-01   2.93349583e+00   7.96207910e-01
C     8.533214235527201e-01   8.476223168013614e-01   4.440721603344369e+00  1.46277701e+00   1.17329464e+00   2.78991650e-01
C     2.735790464405825e+00   2.632428170604476e+00   4.423603526496242e+00 -3.60449407e+00   3.84314120e-01   1.42981612e+00
C     8.786081442546200e-01   2.608588938000687e+00   6.195959760006915e+00 -2.14595410e-01   5.58669080e-01   1.94839230e-01
C     2.662487841674575e+00   8.936644942060420e-01   6.224788749868813e+00  1.92334930e-01  -2.25693674e+00  -6.70006710e-01
C     3.491859638820218e+00   7.108056109729713e+00   3.621535536055151e+00  1.95098335e+00  -6.51247140e-01  -4.23061150e-01
C     5.362883052991729e+00   1.815800353531970e+00   3.531414029983850e+00 -6.94386580e-01  -2.22671510e+00   1.30222114e+00
C     3.550722496178104e+00   1.721872002810755e+00   5.334227011052175e+00  7.48232240e-01   2.08693591e+00   9.41048100e-02
C     5.242882145447973e+00   7.101041873709428e+00   5.307961602723954e+00  2.59863757e+00  -1.51730098e+00   1.56244496e+00
C     4.419100198598020e+00   8.595381656392673e-01   4.459051168659622e+00  2.06363080e-01   9.85289080e-01  -7.57940130e-01
C     6.255448513976493e+00   2.639487189687268e+00   4.428280228822167e+00 -9.94635030e-01   2.27444317e+00  -8.25315420e-01
C     4.447664541885775e+00   2.660911904379721e+00   6.221878917069317e+00  6.59543160e-01   4.94045420e-01  -3.56789410e-01
C     6.191014927979765e+00   8.622320445595688e-01   6.179940929632745e+00 -8.54720000e-01   8.14141500e-01   1.05999002e+00
C     3.810420186492660e-02   3.594020182693429e+00   3.502640414734162e+00 -8.06852610e-01  -9.57455930e-01   2.41946010e-01
C     1.834635754200863e+00   5.346356254737135e+00   3.565225739765464e+00 -2.49062820e+00  -5.83544010e-01   5.99664150e-01
C     7.874284073078800e-03   5.288940885477358e+00   5.318487257350067e+00 -1.39770757e+00   1.63391101e+00   8.36875300e-02
C     1.745914607385702e+00   3.501297136111660e+00   5.336838716606989e+00  1.78859217e+00   7.07327520e-01  -9.33686780e-01
C     9.017683092455204e-01   4.453950448924415e+00   4.382705998878560e+00  3.91208870e-01  -9.37119880e-01   2.05530949e+00
C     2.632041472413948e+00   6.164763665412557e+00   4.526364874249296e+00  1.18589884e+00   1.45797679e+00  -1.36250476e+00
C     8.175557505613212e-01   6.254935925621365e+00   6.221889224282116e+00  1.39022622e+00  -1.74361285e+00  -7.42200500e-02
C     2.679195478200623e+00   4.360160357023159e+00   6.252459351180557e+00 -1.20846782e+00   2.81025149e+00  -1.34259904e+00
C     3.529189093703791e+00   3.557473222971866e+00   3.557580346900748e+00  1.55497830e+00   4.17637530e-01  -3.19466400e-02
C     5.319299678971307e+00   5.357513279460354e+00   3.480296652081169e+00  5.89791800e-02  -8.68574700e-01   2.31206583e+00
C     3.562451109164199e+00   5.316039045515512e+00   5.373483630392257e+00 -4.32378960e-01  -1.98162159e+00  -7.59601360e-01
C     5.372249892562329e+00   3.572740764159328e+00   5.315455941607993e+00 -1.85696795e+00  -1.11471265e+00  -4.60176330e-01
C     4.434989158090922e+00   4.441427398626309e+00   4.404396070987419e+00  8.36885970e-01   3.67243790e-01   1.07955088e+00
C     6.163810781360346e+00   6.199140068287103e+00   4.461373845750708e+00  1.08432856e+00   4.45094680e-01  -1.35588010e+00
C     4.413482980875243e+00   6.184066800289846e+00   6.249116260022371e+00  9.12996900e-01   1.25904992e+00  -5.03209510e-01
C     6.215204890155625e+00   4.424155637681137e+00   6.199904081550301e+00  8.48902500e-01   1.43361570e-01   1.51657589e+00
