64
Lattice="7.10842262195238 0 0 0 7.10842262195238 0 0 0 7.10842262195238 " PBC="1 1 1" Properties=species:S:1:pos:R:3:force:R:3 Energy="-513.2608983"
C     1.756811108419900e-02   1.644099959357180e-02   1.472282276209160e-02 -1.61263928e+00  -9.33016230e-01  -6.80705140e-01
C     1.763691777179155e+00   1.775079043711038e+00   7.047358710662056e+00  4.14566940e-01   9.89542970e-01   2.09537285e+00
C     7.102081907022960e+00   1.749737445986512e+00   1.781337227901460e+00  8.40728150e-01   2.83755250e-01  -2.26382920e-01
C     1.792741483563404e+00   1.949740806749320e-02   1.751509220324547e+00 -1.08436510e-01  -2.18573110e-01  -5.30795180e-01
C     9.018270248163618e-01   8.944342652915619e-01   8.318069294825758e-01 -3.45215130e-01   3.02393370e-01   1.54890721e+00
C     2.644103470420922e+00   2.661563675649749e+00   9.336904581262856e-01  4.39525780e-01   3.09487910e-01  -1.98827472e+00
C     9.120300992239788e-01   2.624194058178373e+00   2.672643218566412e+00 -1.73083130e+00   1.58674493e+00   7.86456800e-02
C     2.668143658132178e+00   8.959959146569496e-01   2.657102429613437e+00 -1.68695180e-01  -3.91093140e-01   5.64883850e-01
C     3.574001442910985e+00   1.395447336109580e-02   7.078277008100425e+00  6.33744100e-01  -5.06085550e-01   1.10825686e+00
C     5.346981938096146e+00   1.794450917035062e+00   7.081446013988647e+00 -7.91154500e-01  -5.38433110e-01   1.93996023e+00
C     3.538239821720479e+00   1.771823741572209e+00   1.797455434023858e+00  8.60475890e-01   1.98787090e-01  -1.22099998e+00
C     5.351703992158386e+00   7.077947106206631e+00   1.779679401578023e+00 -1.32577344e+00   8.58021400e-02  -2.47138370e-01
C     4.479205039556073e+00   8.745619590150898e-01   9.020403485791879e-01 -1.25517678e+00   6.26451430e-01  -8.57991140e-01
C     6.201847595378836e+00   2.665448570780031e+00   9.768103629918842e-01  5.30044910e-01   3.26459490e-01  -3.30703431e+00
C     4.423432071342647e+00   2.678268539890975e+00   2.637220455882201e+00  2.17916710e-01  -5.34277840e-01   1.10152992e+00
C     6.232528755838601e+00   8.260808818094872e-01   2.638195376044535e+00  4.80743190e-01   1.34004646e+00   7.50598080e-01
C     7.069936127166570e+00   3.547864128358376e+00   1.941871782908980e-02  1.90827158e+00   6.78526100e-02  -1.38338370e-01
C     1.762108376040550e+00   5.312037643338488e+00   1.263941517639580e-02  3.71869420e-01   1.60240028e+00  -8.86329780e-01
C     1.741044627048740e-02   5.281590136730242e+00   1.801533607165178e+00 -2.87699330e-01   1.79555620e+00  -9.54336090e-01
C     1.766497898092626e+00   3.578299763900846e+00   1.803726200122316e+00  4.37020810e-01  -2.09364681e+00  -5.98022470e-01
C     9.399516278542078e-01   4.439485235398073e+00   8.605590772959518e-01 -2.88894860e+00  -7.28869190e-01   2.22874304e+00
C     2.662428699598377e+00   6.231228980762534e+00   8.406543566123326e-01  4.66762410e-01  -6.20184460e-01   1.75614972e+00
C     9.273618294676995e-01   6.241781718478829e+00   2.649336691153765e+00 -4.07693700e-01  -1.59851043e+00  -3.78733090e-01
C     2.664326008679881e+00   4.391631547572911e+00   2.701820947642047e+00 -5.82002600e-02   2.17593649e+00  -8.49684470e-01
C     3.539091766171486e+00   3.576472259529471e+00   1.022006353767880e-02  4.88595770e-01  -9.16870070e-01   7.96978790e-01
C     5.352959623929983e+00   5.295118317986817e+00   7.094629721085057e+00 -8.35557330e-01   2.58930045e+00   9.09520570e-01
C     3.547525625273211e+00   5.302072061330605e+00   1.800847004624312e+00  2.09560590e-01   1.17719669e+00  -7.96767320e-01
C     5.323310535350416e+00   3.591840313812780e+00   1.788552774450343e+00 -6.08268470e-01  -1.41802834e+00   4.65011780e-01
C     4.461179074970920e+00   4.468571052569231e+00   9.109044805021017e-01 -8.59047150e-01  -9.04685240e-01  -1.12895841e+00
C     6.189304072823584e+00   6.207407519215295e+00   8.997836376500167e-01  2.22981865e+00  -6.45856650e-01  -2.79131760e-01
C     4.424978793020533e+00   6.214610483856140e+00   2.673157584027195e+00  3.06802000e-03   1.84571400e-01   1.02913180e-01
C     6.183785520006772e+00   4.427887488472411e+00   2.702030717193563e+00  1.79370670e+00   6.14329210e-01  -1.08241661e+00
C     3.987348825504460e-02   7.071169509575366e+00   3.535135573562325e+00 -1.38903856e+00   1.64927000e-02  -1.03566860e-01
C     1.766778041028081e+00   1.750361565492548e+00   3.563214767006265e+00  2.92184210e-01   5.11274380e-01  -3.79265020e-01
C     7.055755961387288e+00   1.750806126243203e+00   5.307312603738748e+00  2.20294097e+00   8.90056720e-01  -4.73349110e-01
C     1.791467085556091e+00   2.135675817220660e-02   5.333870736910461e+00 -6.60618880e-01  -5.28055490e-01   6.62050730e-01
C     8.828141268346478e-01   8.344391783787617e-01   4.390652717778137e+00  1.38171960e-01   1.78017218e+00   2.16135873e+00
C     2.647961993303284e+00   2.659282014157181e+00   4.463250611490841e+00 -1.68327070e-01  -5.09110070e-01  -1.41895090e-01
C     8.579362115176242e-01   2.672558557253008e+00   6.184268395155350e+00 -7.51678900e-02  -8.08837170e-01   7.12848200e-01
C     2.706821083197181e+00   9.217607478642706e-01   6.228675706441655e+00 -1.22927817e+00  -6.32797920e-01  -1.16083215e+00
C     3.540466961611551e+00   3.226882665194240e-02   3.570052003303313e+00  7.99571100e-01  -1.02854730e+00  -3.37074610e-01
C     5.345038424267612e+00   1.767189263276647e+00   3.487547243153568e+00 -2.28634710e-01   8.20311460e-01   1.22581263e+00
C     3.548038284712566e+00   1.797115722506848e+00   5.325865160271591e+00  1.04230130e+00  -2.00430840e-01  -1.43254090e-01
C     5.353536472425596e+00   4.254291420153320e-02   5.263699587596000e+00 -8.22356830e-01  -1.38344955e+00   1.98501337e+00
C     4.455302115485608e+00   9.178201227006474e-01   4.400644956370845e+00 -2.97404390e-01   1.30713210e-01   4.62317990e-01
C     6.231595775369725e+00   2.688893996770672e+00   4.429983833387276e+00 -1.15612193e+00  -1.43320678e+00   1.24442790e-01
C     4.447280687064295e+00   2.677423632778362e+00   6.203964767971977e+00 -6.32508240e-01  -7.68639100e-02   1.20416240e+00
C     6.214947494172555e+00   8.923436781990197e-01   6.208557306574080e+00  2.21545040e-01   1.96003410e-01  -9.97917200e-02
C     7.095057150537197e+00   3.570879708033186e+00   3.567835526046170e+00  6.77656130e-01  -7.98222520e-01  -3.80474900e-02
C     1.818018039220958e+00   5.362925134853639e+00   3.530087456154506e+00 -7.54053970e-01  -6.43711640e-01   1.81718009e+00
C     7.105647705061831e+00   5.359998881597891e+00   5.355996768578605e+00 -7.23942000e-02  -6.70215460e-01  -8.19408700e-01
C     1.777894334489689e+00   3.548600347689129e+00   5.343076144203361e+00 -1.02191825e+00   8.12747610e-01  -6.05102540e-01
C     8.856424260266934e-01   4.464848016222006e+00   4.432849807219207e+00  4.62849550e-01   2.72143220e-01   4.10493990e-01
C     2.686399153683731e+00   6.256436655804898e+00   4.509054798906202e+00 -2.84203520e-01  -1.04277144e+00  -2.06441137e+00
C     8.595754137737962e-01   6.231193580817886e+00   6.242870160150403e+00  1.37905486e+00   4.30843100e-02  -5.31133530e-01
C     2.635075915861974e+00   4.448453718965048e+00   6.252316116464764e+00  9.59587090e-01  -2.55834280e-01  -7.28021970e-01
C     3.513032999688828e+00   3.517756901940949e+00   3.581224595472072e+00  1.46603163e+00   6.17289530e-01  -4.50819660e-01
C     5.324106536515402e+00   5.335303155152618e+00   3.537349491787324e+00 -6.78058130e-01  -3.00270760e-01   1.59652672e+00
C     3.542740306249653e+00   5.336028214259858e+00   5.381064620948034e+00  6.14908020e-01  -2.60317900e-02  -1.33853737e+00
C     5.317772789792531e+00   3.535453462221891e+00   5.356465924471524e+00  7.66195080e-01   1.49666219e+00  -1.58712023e+00
C     4.420840482623849e+00   4.425828107355171e+00   4.444648367083883e+00 -5.86692000e-03   3.81330820e-01   6.91399860e-01
C     6.213607130003328e+00   6.216346431744171e+00   4.446794968546671e+00  7.54280240e-01   1.22063270e-01  -9.76153310e-01
C     4.481944199128463e+00   6.223798546597847e+00   6.204782023320598e+00 -8.45710340e-01   9.90324500e-02  -7.51383300e-02
C     6.232693529074933e+00   4.474117470402713e+00   6.235300898491948e+00 -5.23027280e-01  -2.03861044e+00  -3.08390800e-01
