64
Lattice="7.10842262195238 0 0 0 7.10842262195238 0 0 0 7.10842262195238 " PBC="1 1 1" Properties=species:S:1:pos:R:3:force:R:3 Energy="-512.92763319"
C     6.212761369880000e-05   5.019257211982000e-04   7.070716987391377e+00  1.23089474e+00  -4.37439200e-02   1.68761897e+00
C     1.791760521241844e+00   1.791686877983501e+00   3.661292588347680e-02  8.46973200e-02  -1.02753709e+00  -4.27521070e-01
C     7.098442821146877e+00   1.814079120078763e+00   1.747253194449274e+00 -1.22979310e-01  -1.22878063e+00   9.52908840e-01
C     1.772651517386308e+00   7.094192268757022e+00   1.803274886370173e+00 -2.44311530e-01   2.19433910e-01   4.37629500e-01
C     8.950108294502700e-01   8.856406489210384e-01   9.367718882478294e-01 -4.58357300e-02   2.48332780e-01  -1.57205145e+00
C     2.698064643876961e+00   2.692650087283080e+00   8.812429521829491e-01 -1.60135279e+00  -1.05053856e+00   1.00428294e+00
C     8.364057234965847e-01   2.697498600183730e+00   2.677005728612532e+00  1.79042391e+00  -1.33915041e+00  -1.04808026e+00
C     2.675822816004338e+00   8.909699044434786e-01   2.664568476975449e+00 -6.37734160e-01   2.16260700e-01   1.08355860e-01
C     3.525951918042642e+00   7.105097370982590e+00   3.556564197887220e-02 -6.42497240e-01  -8.34330300e-02  -9.38493750e-01
C     5.300736246551855e+00   1.778493005842746e+00   3.946311901719199e-03  6.59330460e-01  -1.03858188e+00  -1.35377123e+00
C     3.550076269477719e+00   1.800450994400152e+00   1.774101351263883e+00  5.24416250e-01  -9.10804130e-01   5.11903710e-01
C     5.336521041200102e+00   4.583859218084380e-02   1.769989910704701e+00 -4.55217350e-01  -6.19963740e-01  -1.27446100e-02
C     4.387445539660446e+00   8.934040416012451e-01   8.550111666937203e-01  2.00175801e+00   5.12198220e-01   1.94112998e+00
C     6.243284865526054e+00   2.631418205918627e+00   7.665087460425772e-01 -5.18698590e-01   1.53530868e+00   4.02454450e+00
C     4.496422065647070e+00   2.621335974695550e+00   2.705387883028537e+00 -1.31182226e+00   1.86395251e+00  -1.69487263e+00
C     6.204904501442340e+00   9.289895871634534e-01   2.685327772226445e+00  8.45371900e-02  -3.97087910e-01  -8.31611420e-01
C     4.000250612559759e-02   3.564081425892096e+00   7.087664888601981e+00 -1.55162972e+00  -1.54317660e-01  -3.00387840e-01
C     1.797959421187615e+00   5.323224096931356e+00   7.106304025722335e+00 -7.64994000e-03   1.07391870e-01   7.78524860e-01
C     7.069690175743918e+00   5.408068452218021e+00   1.766836259009338e+00  8.27232760e-01  -3.47807160e+00  -2.01363200e-01
C     1.763469354635375e+00   3.532360089950346e+00   1.766604666600379e+00  2.27526700e-01   1.97259345e+00   7.60210020e-01
C     8.507727697065454e-01   4.429235742990747e+00   9.108139191979231e-01  1.34978905e+00   1.27781360e+00  -1.10698200e+00
C     2.677293193223285e+00   6.220186117306590e+00   9.668650399884684e-01 -6.86797340e-01  -6.79717300e-02  -2.84177909e+00
C     8.411076607228100e-01   6.184817591886970e+00   2.659307462310161e+00  1.13493215e+00   2.26040492e+00   1.03015205e+00
C     2.677741805774833e+00   4.490764898589169e+00   2.650808632225689e+00 -1.53443200e-01  -2.42285253e+00  -1.96782050e-01
C     3.549122176993663e+00   3.529653700206233e+00   7.103031521200766e+00  6.77127200e-01   1.56294124e+00  -2.41459210e-01
C     5.300308888183941e+00   5.365630387250133e+00   7.091298429908420e+00  6.40969060e-01  -1.95380160e+00   7.51594120e-01
C     3.574819906691451e+00   5.341158647201616e+00   1.769780780911221e+00  1.23528600e-01  -2.80513980e-01   9.09657410e-01
C     5.362741879718496e+00   3.521786737808454e+00   1.744655634655474e+00 -1.11556650e-01   4.30800940e-01   2.86615400e-01
C     4.438503064644667e+00   4.413155638013593e+00   8.864559849955523e-01  4.13688750e-01   8.44031240e-01  -1.39452610e-01
C     6.230088292184702e+00   6.253673896269410e+00   8.726035174990535e-01 -1.24348570e+00   1.70640580e-01  -4.59797360e-01
C     4.482518559676159e+00   6.229394012547407e+00   2.673502058187360e+00 -4.06964700e-01  -2.43697990e-01  -8.60789690e-01
C     6.229298191010489e+00   4.453538302580907e+00   2.638749833008895e+00 -7.94813600e-01  -3.08171440e-01   6.38469970e-01
C     7.067955009782375e+00   2.629078539697480e-02   3.547492926529159e+00  1.48176442e+00  -8.17982500e-02   1.30367764e+00
C     1.773076743227436e+00   1.809085808609344e+00   3.538374313076449e+00  1.18774460e-01  -6.80757320e-01   5.98204370e-01
C     4.783442399986119e-02   1.783512049802049e+00   5.384329519457400e+00 -1.07471237e+00  -8.23077400e-02  -6.52864580e-01
C     1.789405429743612e+00   7.083184165487689e+00   5.292774599964777e+00  2.36796670e-01   3.58180430e-01   8.54768190e-01
C     9.223555806691123e-01   9.277530770487044e-01   4.500667855393770e+00 -8.94738490e-01  -1.16642647e+00  -2.57505381e+00
C     2.680395593191558e+00   2.692010187078828e+00   4.391110073689508e+00 -2.16273400e-01   5.00952100e-02   1.50388361e+00
C     9.539584902900129e-01   2.673994387538021e+00   6.252668907479395e+00 -1.33922760e+00   3.86026660e-01  -8.01360360e-01
C     2.637856091032882e+00   8.746154143531921e-01   6.227629702053123e+00  4.15137870e-01   4.27979100e-02   2.04587540e-01
C     3.576824481870291e+00   7.085813642099054e+00   3.533277502973683e+00 -9.83672270e-01   4.12804670e-01   4.25090310e-01
C     5.326399216063032e+00   1.763705638603264e+00   3.619869677214154e+00  1.74113280e-01  -5.48111130e-01  -6.44496830e-01
C     3.515161403589708e+00   1.773267391122105e+00   5.356215210405717e+00  8.53042760e-01  -1.54761650e-01  -1.11282237e+00
C     5.288120573507010e+00   7.067803884717475e+00   5.393642690437219e+00  1.11588905e+00   1.45987455e+00  -1.30103391e+00
C     4.415649343752915e+00   8.438438347577003e-01   4.481458125189707e+00  3.54032670e-01   8.84763040e-01   7.41293100e-02
C     6.224593054994084e+00   2.650302157114014e+00   4.472749880974851e+00  2.32965670e-01  -1.11052520e-01   2.35856870e-01
C     4.423626842122435e+00   2.654273917168713e+00   6.242080201144642e+00  5.04188230e-01  -1.85465400e-02  -1.32047570e+00
C     6.228677270294632e+00   8.747177756389202e-01   6.240195829392307e+00 -9.27989310e-01   4.23293750e-01  -6.14470880e-01
C     7.077100635241042e+00   3.527609033523817e+00   3.565629640338732e+00  6.40466870e-01   1.38125211e+00  -5.07679760e-01
C     1.751451144511741e+00   5.291802594255717e+00   3.540398791838625e+00 -3.01986580e-01   6.52726870e-01  -5.85881930e-01
C     7.105982440683007e+00   5.291493306787521e+00   5.320637484108390e+00  5.04525620e-01   1.94220360e+00  -5.96432400e-02
C     1.779026635128829e+00   3.576189770814552e+00   5.325532272840296e+00  9.05841210e-01  -1.03050269e+00  -2.91372570e-01
C     8.761838878042952e-01   4.420229300446980e+00   4.436734489096811e+00 -1.78379940e-01  -1.14675500e-01   1.14953330e-01
C     2.650035378013085e+00   6.160978217114729e+00   4.370890094462692e+00  3.75961110e-01   2.04158752e+00   1.30858894e+00
C     9.436904448996492e-01   6.212097585375744e+00   6.202004407181833e+00 -1.86275265e+00  -5.30000340e-01   2.10750640e-01
C     2.696467523482699e+00   4.438540668200327e+00   6.198257415450378e+00 -9.23853460e-01   1.86632380e-01   7.13243500e-02
C     3.601157892014623e+00   3.590738295054001e+00   3.526752895103464e+00 -7.47621800e-01  -1.04327634e+00   4.58397640e-01
C     5.343911810366568e+00   5.325524951164997e+00   3.558067700355577e+00  4.54048940e-01   6.61223210e-01  -1.72148080e-01
C     3.549592612402655e+00   5.329440483596771e+00   5.260175942503266e+00  3.82636100e-02  -4.49276840e-01   2.43440889e+00
C     5.357602419080010e+00   3.538451937051460e+00   5.339265887510589e+00 -1.56443784e+00   2.39499810e-01  -3.95476700e-02
C     4.471892818459557e+00   4.454057288516394e+00   4.438210979559211e+00 -7.64991900e-02  -6.06745090e-01  -3.32128850e-01
C     6.219666633781521e+00   6.250004173091835e+00   4.478230261562192e+00 -4.43332750e-01  -1.46095483e+00  -8.16827230e-01
C     4.377364232532309e+00   6.213803393551865e+00   6.251722492091767e+00  1.04064180e+00   1.59747000e-03  -1.04590900e+00
C     6.205928967310335e+00   4.439834187864489e+00   6.182330070475327e+00  8.72134320e-01   3.94023040e-01   1.49618193e+00
