64
Lattice="7.10842262195238 0 0 0 7.10842262195238 0 0 0 7.10842262195238 " PBC="1 1 1" Properties=species:S:1:pos:R:3:force:R:3 Energy="-508.24014925"
C     2.164976735260300e-02   2.727117904472520e-02   7.103902302971716e+00 -1.81092584e+00   6.80126480e-01  -1.01127233e+00
C     1.751813389728457e+00   1.847424161915373e+00   7.044483495880719e+00  2.51775047e+00  -1.70830015e+00   2.44599340e-01
C     3.512648362940860e-02   1.788123283555643e+00   1.750702556525629e+00 -1.51985943e+00  -9.82006830e-01  -1.72207500e-01
C     1.731368855431075e+00   5.125748491252220e-02   1.673793475578123e+00  3.00095867e+00  -9.20803730e-01   2.94765652e+00
C     8.973712522654672e-01   1.005046083901917e+00   7.782416951664706e-01 -1.67226580e-01  -3.28376830e+00   2.00885489e+00
C     2.654047087402908e+00   2.600408778502270e+00   9.503775513109618e-01 -8.13902100e-02   2.73912915e+00  -2.19555173e+00
C     8.213793710886191e-01   2.638372020346642e+00   2.667360949717490e+00  2.69608109e+00   7.36339830e-01   1.45017460e+00
C     2.703732473568791e+00   8.997112739077451e-01   2.729995322864870e+00 -1.20521483e+00  -7.86718000e-03  -3.18253697e+00
C     3.613188897298973e+00   7.036080771670069e+00   6.648578760712199e-03 -1.38753434e+00   1.25863334e+00  -1.97112579e+00
C     5.283915870443054e+00   1.756058895138252e+00   7.060303361505755e+00  8.01565730e-01   3.02742590e-01   2.05854947e+00
C     3.573823163671675e+00   1.734420288009162e+00   1.734642568384489e+00 -1.02275029e+00  -8.67118580e-01   2.06358300e+00
C     5.341446111812369e+00   7.020238301261102e+00   1.762261846884916e+00  1.21416638e+00   2.52907598e+00   8.29441000e-01
C     4.447137025843145e+00   7.896532014194876e-01   8.616244876782374e-01  8.12911450e-01   2.18139837e+00   8.78713900e-01
C     6.214225633855493e+00   2.685460202139855e+00   9.443951028339698e-01 -7.79839100e-02  -2.83005342e+00  -2.65841308e+00
C     4.387638604418805e+00   2.654364336304439e+00   2.640232863220105e+00  1.69295612e+00   5.05901700e-02   2.11728660e-01
C     6.323792869761840e+00   8.301216646478262e-01   2.610193806575604e+00 -3.84911761e+00   1.43436350e+00   7.30793790e-01
C     7.102363329474485e+00   3.505641448595874e+00   1.981380395830940e-02 -1.17961981e+00   1.25979324e+00  -2.92821880e-01
C     1.722739017117716e+00   5.366949923741084e+00   7.089389463013819e+00  1.42966611e+00  -1.11009954e+00   2.33635265e+00
C     6.430776691635400e-02   5.218466206517023e+00   1.830370203039279e+00 -2.36089264e+00   3.06710446e+00  -1.28634727e+00
C     1.762581299397459e+00   3.472921947949823e+00   1.818808637984754e+00  1.11319442e+00   2.32769438e+00  -4.38861610e-01
C     8.962235263492420e-01   4.387410779473833e+00   8.899959794603124e-01  2.95077440e-01   1.30596400e-02   1.61975340e-01
C     2.694538653004762e+00   6.199093365950491e+00   9.128596521437328e-01 -1.92127925e+00   1.48569971e+00  -1.81134534e+00
C     9.361054025429782e-01   6.219668197634497e+00   2.598642761986557e+00 -1.25393443e+00  -1.17411403e+00   2.11275128e+00
C     2.724992770446045e+00   4.481692845304621e+00   2.685168188138626e+00 -2.50695870e+00  -3.53099203e+00   1.49050603e+00
C     3.563706598767344e+00   3.600245881392477e+00   8.056110415275780e-02 -2.02406467e+00  -8.75680810e-01  -2.04119586e+00
C     5.369195119025610e+00   5.376620150789106e+00   7.063704883897878e+00  1.16726200e-02  -6.79003180e-01   6.51545250e-01
C     3.545485365812819e+00   5.334738177722779e+00   1.789936002407969e+00  1.58579843e+00  -6.63786500e-02   4.67226450e-01
C     5.314396431216482e+00   3.468967034856734e+00   1.758897572627322e+00 -5.39514730e-01   4.90073224e+00   1.55849937e+00
C     4.476712328995917e+00   4.492258093844726e+00   8.342096474123620e-01 -4.84867000e-01  -8.99722510e-01   2.69544437e+00
C     6.251600369391156e+00   6.265246337210544e+00   8.912189835720834e-01  5.03397830e-01  -3.18950867e+00  -6.48058660e-01
C     4.483569468876300e+00   6.193521784300934e+00   2.693209733395953e+00 -8.79914920e-01   7.08689750e-01   5.30412900e-02
C     6.193680444293812e+00   4.407927819681939e+00   2.739455496024470e+00  1.20332735e+00  -1.05106959e+00  -1.32294294e+00
C     6.907041007175400e-03   7.079209704232395e+00   3.560239252381760e+00  7.42638640e-01  -8.53298610e-01  -2.69488655e+00
C     1.761636376778582e+00   1.774002046599882e+00   3.549435374094300e+00  8.55137130e-01   3.14561250e-01  -2.12414420e-01
C     7.098774357977874e+00   1.824105194763142e+00   5.291182028960991e+00 -1.75772496e+00  -2.72585479e+00   2.58718860e-01
C     1.742444204378392e+00   3.650729472334360e-02   5.337159306467152e+00  1.58878491e+00  -1.21504765e+00  -7.68011730e-01
C     8.780597294494870e-01   8.756386007051149e-01   4.318527392001212e+00  1.89888910e-01   6.46337560e-01   5.08264294e+00
C     2.629895937214554e+00   2.681808250018830e+00   4.545783307741481e+00 -1.45438880e-01  -2.84243980e-01  -3.18283737e+00
C     8.173860014291556e-01   2.649158909504039e+00   6.177112772609152e+00  2.08949203e+00   1.95610523e+00   6.23140280e-01
C     2.728906170351034e+00   8.805492412194634e-01   6.194787723285329e+00 -2.49970116e+00   1.61356730e-01   8.39049850e-01
C     3.620307342794868e+00   7.275044046212799e-02   3.595069385872141e+00 -1.66763162e+00  -2.94010405e+00  -9.18406550e-01
C     5.326834464780054e+00   1.837567196605124e+00   3.471851632755930e+00  1.13049275e+00  -2.12812448e+00   1.78412856e+00
C     3.567843985069088e+00   1.805221741157338e+00   5.324595880328563e+00 -6.83428930e-01  -6.77294750e-01   1.34954120e+00
C     5.410305117395404e+00   7.554362404643081e-02   5.244257269803811e+00 -3.11323868e+00  -1.68845809e+00   8.11631000e-01
C     4.480579097648519e+00   9.763422022781310e-01   4.386337976332023e+00  4.01034000e-01  -9.49066600e-01   6.08932180e-01
C     6.149802994829600e+00   2.668221282107189e+00   4.520654251853292e+00  1.70800639e+00   9.98870250e-01  -4.05161297e+00
C     4.369442322027677e+00   2.662036599006658e+00   6.277642857586014e+00  1.41045479e+00   1.59272717e+00  -1.63271340e+00
C     6.154548009096903e+00   9.356654622670264e-01   6.156174416192359e+00  3.58950784e+00  -7.51390200e-01   1.37048035e+00
C     7.094661495734168e+00   3.504095651012928e+00   3.623162440740190e+00 -1.12668864e+00   1.42891916e+00  -1.21185564e+00
C     1.771617526232003e+00   5.279688989100523e+00   3.583611177282510e+00  2.27485835e+00   3.29927327e+00  -1.35955495e+00
C     7.090793874070852e+00   5.338250804760453e+00   5.332480827035573e+00  2.98118680e-01  -1.31069635e+00   1.20955345e+00
C     1.683980129529487e+00   3.572336294912250e+00   5.289434210007187e+00  3.01859780e+00  -8.40487400e-02   4.01512723e+00
C     8.887012513643056e-01   4.442641019620222e+00   4.473941110437511e+00 -1.62465655e+00   2.48787080e-01  -2.07697704e+00
C     2.712769340161371e+00   6.247692087550454e+00   4.510333817388219e+00 -1.83736943e+00  -2.76012050e-01  -1.54511413e+00
C     8.492362130730062e-01   6.194587763357029e+00   6.215563012487221e+00  4.82406900e-01   2.66922735e+00   5.45581400e-02
C     2.641957793053074e+00   4.560691589249728e+00   6.281768514990437e+00 -2.62574390e-01  -4.58402167e+00  -7.66495350e-01
C     3.570003097355687e+00   3.512939381762923e+00   3.676668817317002e+00 -1.23247331e+00   1.78582232e+00  -4.14960808e+00
C     5.328723528091319e+00   5.290127565549541e+00   3.615954002613927e+00 -2.06045340e-01   1.47077896e+00  -1.64902918e+00
C     3.529327992281785e+00   5.331684968039037e+00   5.401318365182295e+00  1.63492437e+00   1.44353399e+00  -2.61653795e+00
C     5.301618899388580e+00   3.606600171456721e+00   5.297024228259691e+00 -2.32057090e-01  -2.03177276e+00   4.17289844e+00
C     4.425076818168463e+00   4.458607105498552e+00   4.472919274685886e+00 -4.55981630e-01  -8.62314610e-01   6.64868360e-01
C     6.237391627752943e+00   6.197806243866687e+00   4.464113502912682e+00  1.47798510e-01   1.00220237e+00  -1.50553823e+00
C     4.514077325992590e+00   6.234407583021293e+00   6.102124245285117e+00 -9.56894160e-01   3.25460130e-01   3.61297967e+00
C     6.182059026320826e+00   4.399234289901906e+00   6.271316006033083e+00  1.65933134e+00   1.51267340e+00  -2.02746865e+00
