52
Lattice="8.88768389401873 1.33226762955019e-15 0 4.44384194700937 7.69696003302603 0 0 0 30 " PBC="1 1 1" Properties=species:S:1:pos:R:3:force:R:3 Energy="-414.42253147"
C     8.798392929476863e+00   1.188187416791130e-02  -6.905520000000109e-02 -1.13783258e+00  -5.37182543e+00   6.49708900e-02
C     9.533563614797181e+00   7.340045989780076e+00  -3.041310000000053e-02 -7.79450490e-01   3.03100519e+00  -1.31286704e+00
C     1.087712092073107e+01   7.002465019824306e+00   1.830747000000000e-01 -1.16060696e+00  -2.08191629e+00  -4.99496920e-01
C     1.114583017687784e+01   5.558112151429935e+00   1.205277000000000e-01  1.28447083e+00   3.47340635e+00   7.54522950e-01
C     7.174309395045238e+00   6.831228056100885e+00  -4.313828999999991e-01 -2.41399570e+00   2.86699000e-02  -2.17025100e-01
C     8.519176478890193e+00   6.395426794959088e+00  -2.533287000000009e-01 -1.15650840e-01  -7.63408260e-01   1.20346862e+00
C     8.868318341075472e+00   5.013910907644833e+00  -3.683009999999953e-02 -3.71020030e+00  -6.26757490e-01  -6.31513530e-01
C     1.016924009418098e+01   4.590948483711476e+00  -9.095699999999596e-03  1.13570401e+00  -6.35388700e-01  -5.92967030e-01
C     1.054508904653816e+01   3.252875701228947e+00  -3.252854999999997e-01 -1.63913809e+00  -1.72268563e+00   6.20568700e-01
C     4.655626479603431e+00   6.258336778651961e+00  -7.731689999999958e-02  1.08180218e+00   6.88687440e-01   5.70406520e-01
C     6.084825063095771e+00   5.887820208849419e+00  -2.336181000000010e-01 -7.01293430e-01  -2.16731088e+00   3.08479480e-01
C     6.414091531072528e+00   4.443843259982913e+00  -1.102160999999988e-01 -6.70813100e-01  -1.12146360e-01   8.22251010e-01
C     7.807468660108243e+00   4.003538353588362e+00  -1.116660000000280e-02 -1.85154802e+00   3.37893608e+00  -7.97234670e-01
C     8.059752943233430e+00   2.664126607939013e+00  -4.248449999999693e-02  3.52364942e+00  -2.50249447e+00  -7.57138070e-01
C     9.470892152980866e+00   2.253279737880079e+00  -3.518292000000010e-01 -4.87430170e-01   1.81243057e+00   1.19326395e+00
C     3.599337646953028e+00   5.268615553203981e+00   1.630578000000000e-01  3.75282728e+00  -2.65093132e+00  -2.77313346e+00
C     3.992456168927504e+00   3.818903445479921e+00  -1.567052999999987e-01 -6.19744200e-02   1.38100208e+00   1.53226994e+00
C     5.328848579556167e+00   3.388246370604573e+00  -4.720920000000106e-02  2.54147882e+00   2.87954211e+00  -1.10340707e+00
C     5.714874285455990e+00   2.021294132271882e+00  -8.607719999999830e-02  4.35533520e-01   1.15572206e+00   5.77635990e-01
C     7.093525899913184e+00   1.636724067998566e+00   4.071870000000000e-02 -1.88024034e+00   2.03609429e+00  -1.77618130e-01
C     7.414457586885408e+00   3.015370297704836e-01   1.229517000000000e-01  1.74768142e+00  -1.09344820e-01  -3.29811640e-01
C     3.017814444275611e+00   2.824951278073051e+00  -3.688283999999982e-01 -6.23390780e-01   4.47976740e-01  -5.50802780e-01
C     3.365983727202581e+00   1.427689565686224e+00  -5.898746999999993e-01  9.31806660e-01   2.60890503e+00   1.41299431e+00
C     4.730892049447981e+00   1.070565475427082e+00  -2.382890999999994e-01 -1.18356717e+00  -2.87226943e+00  -3.52052550e-01
C     8.957993029846156e-01   8.843727795781691e-01  -4.001421000000001e-01  2.99472111e+00   1.85867813e+00  -1.06954493e+00
C     2.326830349152086e+00   5.303136957725733e-01  -6.796749000000020e-01 -1.06547097e+00  -3.11154796e+00   2.02470595e+00
C     7.888126083267061e-02   8.925171638947130e-02   3.390723000000000e+00  9.38729180e-01   2.41731560e-01   3.87936790e-01
C     6.953059392544542e+00   7.226794228381862e+00   3.813825600000000e+00 -1.40011821e+00   2.80153990e-01  -9.38083020e-01
C     3.884461430678630e+00   2.951938110705600e-03   3.837607800000000e+00 -6.53543410e-01  -2.27326472e+00  -9.10047940e-01
C     9.316136471090660e+00   6.692782451193274e+00   3.756408000000000e+00  1.48440749e+00  -1.48358561e+00   4.65446530e-01
C     1.070368381324954e+01   7.012896555813765e+00   3.483561600000000e+00 -1.35942772e+00   2.73995380e-01  -4.04321430e-01
C     1.167893838683232e+01   5.987559802975768e+00   3.313797300000000e+00  9.81551140e-01   1.26847948e+00   5.01731020e-01
C     4.159666833413135e+00   6.436090604493582e+00   3.224314800000000e+00 -3.95879890e-01  -1.23735280e+00   3.20249490e-01
C     5.154566565710757e+00   5.407771587522362e+00   3.252208800000000e+00  1.16907271e+00   3.01339521e+00   1.89344068e+00
C     6.504653609091502e+00   5.888057352187944e+00   3.642645900000000e+00  2.85496676e+00  -3.38167571e+00  -7.01700260e-01
C     7.616411142154227e+00   4.843533386478362e+00   3.727401300000000e+00 -1.04175956e+00   1.05411580e+00   5.19590920e-01
C     9.017521445506421e+00   5.271122299146551e+00   3.921214500000000e+00 -1.38348718e+00  -5.58774070e-01  -1.39995230e+00
C     1.003774281134473e+01   4.243118087840558e+00   3.826212600000000e+00 -3.84515940e-01   4.60176550e-01  -9.14204260e-01
C     1.139603123159096e+01   4.608672966298960e+00   3.486972600000000e+00 -3.68612057e+00   1.18353905e+00   9.31815860e-01
C     3.409700868073040e+00   3.592923623843932e+00   3.416551200000000e+00  3.77010917e+00   1.18386727e+00  -3.69583440e-01
C     4.780312862003200e+00   4.079930527946911e+00   3.342164100000000e+00  2.11753775e+00  -3.20574127e+00  -1.28036343e+00
C     5.906218343576093e+00   3.086256220797124e+00   3.252408000000000e+00 -8.28381300e-01   1.41642251e+00   2.46883781e+00
C     7.267978559780225e+00   3.451738901770445e+00   3.580319400000000e+00  1.08444986e+00   4.14529230e-01  -9.60874690e-01
C     8.344184512970354e+00   2.433960409742708e+00   3.615492600000000e+00 -2.16876589e+00   1.71233948e+00  -1.24245820e-01
C     9.700240746987312e+00   2.827410533772236e+00   3.764371199999999e+00 -2.10904546e+00   2.10818912e+00   2.87130760e-01
C     1.752101694368902e+00   1.838404048032642e+00   3.767652600000000e+00  3.10920623e+00  -3.31355010e-01  -1.06143176e+00
C     3.139398626086553e+00   2.239134803524147e+00   3.567360000000000e+00 -1.48501756e+00   4.27051890e-01   6.25508570e-01
C     4.193700260272799e+00   1.345884196308176e+00   3.552187200000000e+00  6.76660800e-01  -8.99687760e-01   6.56072400e-01
C     5.562423176932143e+00   1.740531736409571e+00   3.417180300000000e+00  3.76007520e-01  -1.93073773e+00  -1.23464864e+00
C     6.587941868990359e+00   6.985964892668795e-01   3.305187300000000e+00 -2.56250880e-01   8.34419610e-01   1.44857583e+00
C     7.963863143025717e+00   1.095410030890317e+00   3.395399100000000e+00  7.66657600e-02  -5.28509520e-01  -6.44527300e-02
C     1.461492916660025e+00   4.708562189328293e-01   3.665327400000000e+00 -1.44599133e+00  -3.61786700e-02  -7.21248000e-02
