52
Lattice="8.88768389401873 1.33226762955019e-15 0 4.44384194700937 7.69696003302603 0 0 0 30 " PBC="1 1 1" Properties=species:S:1:pos:R:3:force:R:3 Energy="-416.86215626"
C     1.277870856863830e+01   6.893034953020187e+00  -2.260296000000004e-01 -1.89805789e+00   6.33128988e+00  -7.50881330e-01
C     9.036103638212259e+00   6.783271376937968e+00  -2.585858999999999e-01 -1.96290757e+00  -1.84609116e+00  -1.31690770e-01
C     1.039487105969532e+01   6.400037889773861e+00  -2.674148999999986e-01 -2.40204979e+00  -2.06313327e+00   6.57803600e-01
C     1.072792212570224e+01   5.014096866199157e+00  -2.168615999999979e-01 -3.32914718e+00  -3.63994010e-01   3.86883220e-01
C     6.578226611981945e+00   6.189611084361692e+00  -3.950741999999998e-01  7.92130400e-01  -1.88943036e+00   9.32707700e-01
C     7.975688476078719e+00   5.724113181123347e+00  -2.914442999999984e-01 -3.45938900e-01   3.85771954e+00  -3.88584110e-01
C     8.323050179650213e+00   4.390259718190063e+00  -2.669690999999972e-01 -3.20892730e-01  -1.63866737e+00   5.56221040e-01
C     9.684737605246861e+00   4.022334791799223e+00  -1.930614000000013e-01  5.90061040e-01  -1.36003943e+00  -5.87380600e-01
C     1.003078637564506e+01   2.579723052733239e+00  -2.510712000000019e-01  1.20879151e+00   4.22798012e+00  -5.24117650e-01
C     4.175372303515345e+00   5.607545877222610e+00  -2.405541000000007e-01  1.46018049e+00  -4.22332757e+00   4.50661190e-01
C     5.534795813795369e+00   5.181520678954116e+00  -3.220293000000005e-01  1.55712847e+00   5.65543080e-01   1.32619090e-01
C     5.924590297599919e+00   3.798548680741385e+00  -2.468286000000006e-01  4.95072230e-01   6.09010850e-01  -1.87412700e-02
C     7.286486939233082e+00   3.365578900285824e+00  -2.215451999999978e-01  2.98133790e-01   1.92929458e+00  -6.33186110e-01
C     7.628209274052256e+00   2.018088040540986e+00  -2.825643000000007e-01  1.07111720e+00  -5.23452670e-01   7.22386370e-01
C     9.036306451825478e+00   1.652247835774272e+00  -3.188679000000008e-01 -2.95817882e+00  -1.74770610e+00   6.42102800e-02
C     3.126164555262120e+00   4.635527044086828e+00  -1.261641000000004e-01  4.04907041e+00  -2.04494687e+00  -1.58404507e+00
C     3.537652808912346e+00   3.240627374794008e+00  -3.222245999999984e-01  3.84229180e-01   5.71517150e-01   1.20998947e+00
C     4.943325204294933e+00   2.823453911468814e+00  -2.471436000000011e-01 -2.34952301e+00  -1.53640001e+00  -7.04947760e-01
C     5.256603217778398e+00   1.382870013492333e+00  -2.891309999999976e-01  9.32970480e-01   2.99057088e+00   9.47688600e-01
C     6.642578861463253e+00   1.002686677648914e+00  -2.083755000000025e-01 -1.30867656e+00   3.20721890e-01  -6.81797040e-01
C     1.136954006948607e+01   7.315974901830256e+00  -1.986284999999981e-01  3.84772731e+00   1.94148198e+00  -1.58587450e-01
C     2.519345848893904e+00   2.282758017220575e+00  -3.847461000000010e-01  1.65268980e-01  -3.33493164e+00   1.05754469e+00
C     2.846425013413423e+00   8.180144392843279e-01  -3.209003999999993e-01  8.89620030e-01   2.97119343e+00  -4.11019120e-01
C     4.228687782725197e+00   4.538165348792146e-01  -2.442378000000005e-01 -9.77748040e-01  -1.21405945e+00  -6.12300220e-01
C     4.193223925763393e-01   2.744696692201847e-01  -3.872561999999995e-01  1.64056720e+00  -1.84354448e+00   9.10837660e-01
C     6.271420832063921e+00   7.575772625841255e+00  -3.674435999999979e-01 -1.50281160e+00  -6.59699360e-01  -2.88673320e-01
C     5.572201854446837e-01   6.843187053808297e-01   3.587010300000000e+00  6.75680570e-01   5.21762731e+00   1.87183479e+00
C     2.968310132133592e+00   1.286161251316997e-01   3.706942800000000e+00  2.30557620e-01   8.29353820e-01   8.47865310e-01
C     4.343482529952967e+00   5.694368817874614e-01   3.752599800000000e+00 -7.33113760e-01  -1.44920894e+00  -6.84134880e-01
C     9.812531925338854e+00   7.251398869600962e+00   3.691639200000000e+00 -9.77688730e-01  -1.74561970e-01   7.78414440e-01
C     1.115193952768901e+01   7.626446254925162e+00   3.619174500000000e+00  1.36810582e+00   3.62082560e-01  -1.45822110e-01
C     1.219227669955646e+01   6.616859252609352e+00   3.554524200000000e+00 -7.07313770e-01   2.08196549e+00   6.82304260e-01
C     4.649692929059088e+00   7.083265012283236e+00   3.576686400000000e+00  6.06191560e-01  -4.19497644e+00  -3.36597350e-01
C     5.679065231965527e+00   6.026485869844288e+00   3.599611200000000e+00  6.47291950e-01   2.57447265e+00   6.95061640e-01
C     7.071407168574780e+00   6.439965254172683e+00   3.649301100000000e+00 -1.12966435e+00   3.56121260e-01   1.61928250e-01
C     8.069696663532145e+00   5.448739580917239e+00   3.717976500000000e+00  2.07134845e+00   2.40461075e+00  -1.22158700e-02
C     9.490813321063573e+00   5.859650104835622e+00   3.814682700000000e+00 -1.94870177e+00   3.24175330e-01  -1.57292502e+00
C     1.049459584905520e+01   4.877735752006870e+00   3.678309600000000e+00  1.14938850e-01   1.07780241e+00   1.13260222e+00
C     1.185963766479733e+01   5.266762510076758e+00   3.664949400000000e+00  4.06216940e-01  -8.09470960e-01  -5.83317160e-01
C     3.999831791447599e+00   4.265791869666532e+00   3.675107700000000e+00 -4.82580440e-01   1.56176926e+00   1.10852040e-01
C     5.342380656820888e+00   4.685558284886632e+00   3.734031300000000e+00  5.91781920e-01  -1.18713565e+00  -1.85065588e+00
C     6.384746220353792e+00   3.690843117831987e+00   3.562071000000000e+00 -7.01617070e-01   1.20180049e+00   1.47969355e+00
C     7.716787488150449e+00   4.137671351791164e+00   3.613142400000000e+00  1.56415243e+00  -3.48359086e+00   4.20698280e-01
C     8.774088271174355e+00   3.104303282979465e+00   3.703041300000000e+00 -2.48538640e-01   1.98087835e+00   4.72808000e-03
C     1.015907040564523e+01   3.539475779456412e+00   3.776910900000000e+00 -6.33309980e-01  -2.86906264e+00  -1.32205351e+00
C     2.306091695543262e+00   2.524380755573534e+00   3.668870700000000e+00 -1.28677456e+00  -6.83110000e-04   1.42443772e+00
C     3.670615403754823e+00   2.916172800473400e+00   3.637103100000000e+00 -1.63128708e+00  -1.34302530e-01   3.59130370e-01
C     4.640742983604339e+00   1.943082319592641e+00   3.682836900000000e+00  3.02119501e+00  -8.07651820e-01   1.97375860e-01
C     6.058709934831034e+00   2.337126802875685e+00   3.676024200000000e+00 -1.89689399e+00  -1.02894377e+00  -6.63181280e-01
C     7.047410774261440e+00   1.332733786157720e+00   3.646774500000000e+00  1.48307760e-01  -2.56227870e-01  -1.09172610e-01
C     8.392495251417708e+00   1.764172410354514e+00   3.669400800000000e+00  1.90976349e+00  -2.64466088e+00  -6.31728780e-01
C     1.952950818194693e+00   1.139637071101098e+00   3.836430600000000e+00 -1.00506719e+00  -9.92987780e-01  -2.84170977e+00
