52
Lattice="8.88768389401873 1.33226762955019e-15 0 4.44384194700937 7.69696003302603 0 0 0 30 " PBC="1 1 1" Properties=species:S:1:pos:R:3:force:R:3 Energy="-415.16045977"
C     1.305730688530064e+01   7.421693725416709e+00  -4.652106000000025e-01  1.08539423e+00  -3.99637004e+00   9.51494020e-01
C     9.251431644052918e+00   7.051377661422950e+00  -4.169537999999982e-01  3.35673782e+00   3.80223309e+00  -5.38276170e-01
C     1.071620762617018e+01   6.701269735079155e+00  -4.699458000000014e-01 -4.14128098e+00   1.60783385e+00   3.54991090e-01
C     1.095061415540013e+01   5.366743711778449e+00  -4.228574999999992e-01  3.27831117e+00  -2.96312995e+00  -1.85670020e-01
C     6.941348179913141e+00   6.539631188391545e+00  -2.975789999999989e-01 -2.89247293e+00   7.55985060e-01  -1.33041408e+00
C     8.255756815563437e+00   6.109569550344118e+00  -4.744047000000009e-01  3.02187480e-01  -2.84838630e-01   1.39920979e+00
C     8.536729964558443e+00   4.727595232090477e+00  -4.191287999999993e-01  5.01374764e+00   1.29557537e+00  -9.06554570e-01
C     9.998569633614041e+00   4.288061868969333e+00  -4.322777999999978e-01 -2.27009590e+00   4.64390188e+00   2.91001230e-01
C     1.037217791201749e+01   2.998906192322265e+00  -3.660831000000009e-01 -1.24462412e+00  -3.57820374e+00  -6.73579600e-02
C     4.499639805949985e+00   5.916402869920824e+00  -4.057797000000001e-01  1.18287170e-01   5.17183665e+00   1.76727860e-01
C     5.855459049420793e+00   5.609085192259010e+00  -3.462378000000008e-01  7.77219470e-01  -2.16715964e+00  -5.64571690e-01
C     6.171049060586352e+00   4.219870112796346e+00  -4.660794000000017e-01  5.87143960e-01  -9.50002740e-01   1.08859218e+00
C     7.543567684352430e+00   3.859312023819820e+00  -5.083895999999974e-01 -2.13191836e+00  -4.98170199e+00   1.08461897e+00
C     7.884501770411416e+00   2.394854003100685e+00  -3.978086999999988e-01 -2.93998920e-01   1.75677152e+00  -6.79606340e-01
C     9.229780309623528e+00   2.022894330262119e+00  -3.646370999999995e-01  3.62482249e+00   4.69588350e-01   2.60255560e-01
C     3.502608894654841e+00   4.978089178695613e+00  -3.998754000000027e-01 -2.23910938e+00  -9.43875960e-01  -1.14983771e+00
C     3.865987715487265e+00   3.620972577706857e+00  -5.477097000000022e-01 -1.71206208e+00  -2.72411169e+00   2.81266100e+00
C     5.179832116497002e+00   3.146571908680213e+00  -3.398745000000005e-01  5.39030370e-01   4.62873276e+00  -1.98862343e+00
C     5.504512139722770e+00   1.828866283041867e+00  -3.816440999999990e-01  1.13433937e+00  -3.02221365e+00   1.39896700e-02
C     6.870167693957073e+00   1.419174033957033e+00  -4.258476000000009e-01  6.62510500e-02  -6.79273830e-01   1.34071330e-01
C     7.256842689580489e+00   1.683109643680160e-02  -4.665390000000009e-01 -6.54492340e-01   1.93111773e+00   6.04595600e-02
C     2.864561933297424e+00   2.547299531637263e+00  -3.668160000000000e-01 -1.28054024e+00   4.16562201e+00  -6.71020760e-01
C     3.208544939410112e+00   1.229449203150354e+00  -2.744078999999999e-01 -3.76333327e+00  -2.22182957e+00  -9.86291100e-01
C     4.489044927992652e+00   8.251375909440914e-01  -3.806648999999993e-01  2.88042475e+00  -2.78977139e+00   2.78856710e-01
C     7.887798126259400e-01   6.659003418466416e-01  -3.422625000000004e-01 -2.18774957e+00  -6.66540820e-01  -7.27143580e-01
C     2.120167212930466e+00   2.070359096709520e-01  -3.634067999999999e-01  2.07050476e+00   1.70685809e+00   1.42484721e+00
C     2.268400895337239e-01   3.691009449138236e-01   3.879711000000000e+00  3.09944048e+00  -3.04397941e+00  -1.60929935e+00
C     7.161797447371821e+00   7.434156258249284e+00   3.738132300000000e+00 -2.66202847e+00   2.07941132e+00   3.55698500e-02
C     4.044209194309484e+00   2.045513309732680e-01   3.726453600000000e+00  1.38146824e+00  -1.02317507e+00   6.98314490e-01
C     9.511900995995148e+00   6.908025090557013e+00   3.743749800000000e+00  9.31026430e-01   1.49875973e+00  -3.79913710e-01
C     1.089706679444048e+01   7.322991912411205e+00   3.768688800000000e+00 -9.62792960e-01  -3.79865548e+00   4.91612390e-01
C     1.189603210883206e+01   6.256665306811845e+00   3.862257300000000e+00 -2.37185800e-01   1.35978009e+00  -1.05211771e+00
C     4.377746555026484e+00   6.648021549834812e+00   3.847607100000000e+00 -2.04833889e+00   1.71099647e+00   6.05775430e-01
C     5.364466774140812e+00   5.703368180511291e+00   3.873182700000000e+00  2.08742982e+00  -1.85450731e+00  -6.33843200e-01
C     6.774307715995372e+00   6.110484718891686e+00   3.848208900000000e+00  2.25040930e-01  -2.48934983e+00  -4.68024960e-01
C     7.833546858462298e+00   5.115652173196584e+00   3.821953500000000e+00 -1.21445994e+00   1.22885840e+00  -8.01771000e-02
C     9.174078797317645e+00   5.574880825520893e+00   3.709235700000000e+00  1.31960970e-01  -3.87331315e+00   1.01474472e+00
C     1.017328750091542e+01   4.482186666977162e+00   3.804413700000000e+00  7.90277160e-01   2.85781089e+00  -1.39279760e+00
C     1.153866420460472e+01   4.899219121994606e+00   3.772816500000000e+00 -4.72987930e-01  -8.44831400e-01   7.75297400e-01
C     3.637801231119180e+00   3.864757161223443e+00   3.789238800000000e+00  1.67155265e+00   1.71146773e+00   4.40896200e-02
C     5.025926806056578e+00   4.284364788158124e+00   3.781951500000000e+00  1.01702870e+00   1.19349899e+00   4.76217940e-01
C     6.145344811704930e+00   3.374012690299496e+00   3.794392500000000e+00 -2.53815469e+00  -8.44692680e-01   8.61492170e-01
C     7.490154437194390e+00   3.740011067594827e+00   3.877395900000000e+00  7.90025930e-01   6.24768490e-01  -1.05262644e+00
C     8.500705114224896e+00   2.762660858124665e+00   3.785459700000000e+00  1.02101970e-01  -1.94563055e+00  -4.32203170e-01
C     9.880503329267137e+00   3.126849372238541e+00   3.694099200000000e+00 -1.73237076e+00  -1.23326900e+00   2.37321716e+00
C     1.940471444095811e+00   2.070576074012766e+00   3.957541800000000e+00  1.60927379e+00   9.03543930e-01  -3.27824086e+00
C     3.321870286621374e+00   2.516586121120754e+00   3.853531199999999e+00  3.59284840e-01  -1.94471580e+00   6.88451270e-01
C     4.431355283403688e+00   1.551868470330229e+00   3.872695500000000e+00 -1.73547527e+00   1.71339816e+00  -7.22672280e-01
C     5.787531056807376e+00   2.004447411006220e+00   3.867000000000000e+00  1.01126210e-01  -2.20439125e+00  -8.69776300e-01
C     6.786871564773000e+00   9.360168413826592e-01   3.787936200000000e+00  6.41269890e-01   3.63524861e+00   3.40958110e-01
C     8.170524857157366e+00   1.325477938907039e+00   3.771025200000000e+00 -2.31739646e+00   3.10390217e+00   6.43786560e-01
C     1.611475870889253e+00   6.901261386930650e-01   3.713744700000000e+00  9.84375380e-01   1.49077441e+00   2.35631072e+00
