52
Lattice="8.88768389401873 1.33226762955019e-15 0 4.44384194700937 7.69696003302603 0 0 0 30 " PBC="1 1 1" Properties=species:S:1:pos:R:3:force:R:3 Energy="-416.62035333"
C     1.224068751357250e+01   6.328972704482474e+00  -2.566023000000008e-01 -1.12300245e+00  -9.24540110e-01  -6.38167600e-01
C     8.414949365385608e+00   6.009333271387034e+00  -5.509281000000001e-01 -2.61388240e-01   1.85395168e+00   6.00093180e-01
C     9.779381307783465e+00   5.666002749258454e+00  -4.354869000000008e-01  1.26156079e+00  -8.68767650e-01  -4.68202160e-01
C     1.014048025991204e+01   4.259028012100970e+00  -3.752397000000016e-01  9.79474950e-01   1.70865420e+00  -2.12368380e-01
C     6.020776191045437e+00   5.442711860608946e+00  -1.689708000000003e-01  2.73324079e+00   3.55875777e+00  -1.15666569e+00
C     7.366032111082708e+00   5.040976420924724e+00  -4.040007000000010e-01  8.35131810e-01  -5.76352490e-01   9.14167700e-01
C     7.695297601440075e+00   3.636772743317240e+00  -2.817729000000000e-01  1.23805193e+00   2.10502973e+00  -3.14983670e-01
C     9.100010482506297e+00   3.275632995071247e+00  -3.377082000000016e-01 -7.15263150e-01   3.77341866e+00   1.27336020e-01
C     9.451691289413310e+00   1.993986087781445e+00  -2.867864999999981e-01  1.58173516e+00  -5.13016786e+00   1.51535730e-01
C     3.697487850573877e+00   4.942945090107433e+00  -2.594376000000018e-01 -1.17623870e+00   1.26025440e-01   6.88980010e-01
C     5.031998694092760e+00   4.524836138260194e+00  -6.364050000000177e-02 -1.79955461e+00  -9.06403380e-01  -9.96959020e-01
C     5.321671285844008e+00   3.159846701704753e+00  -1.627887000000001e-01  2.19761237e+00  -9.48753680e-01   3.23184920e-01
C     6.669111754097576e+00   2.688151822007055e+00  -1.755035999999990e-01  8.30268730e-01   1.88237113e+00  -8.14062700e-02
C     7.067282213428610e+00   1.361291201200227e+00  -2.144121000000005e-01  3.44301170e-01  -1.80636009e+00  -9.02936860e-01
C     8.449017854189171e+00   9.667725082097337e-01  -2.672348999999983e-01  4.16966520e-01   5.34397580e-01   3.95521550e-01
C     2.698952654293132e+00   3.929512532621436e+00  -3.543860999999993e-01 -2.86228825e+00   1.12836244e+00   9.22036180e-01
C     3.003332896426586e+00   2.583144428436174e+00  -2.270001000000015e-01 -8.78035780e-01  -1.88500367e+00  -1.12330626e+00
C     4.367958323667014e+00   2.184838831110921e+00  -2.767248000000002e-01 -2.59253994e+00  -1.04589210e+00   4.18700730e-01
C     4.645902461123852e+00   8.157690821043764e-01  -3.979740000000014e-01  2.66196503e+00  -2.46172655e+00  -8.49640460e-01
C     6.064413338077974e+00   3.991081593475810e-01  -4.241676000000005e-01 -1.92914036e+00  -1.40598050e+00   1.02113188e+00
C     1.081970688253772e+01   6.679617185909961e+00  -4.067390999999994e-01  8.80958170e-01   6.04323050e-01   2.14968200e-01
C     1.952707340376002e+00   1.572937512959548e+00  -2.931947999999984e-01  1.19117213e+00   3.36760590e-01   1.89162710e-01
C     2.372648625733167e+00   1.743127459210088e-01  -3.529011000000004e-01 -3.67576074e+00   3.10633320e-01  -2.12155190e-01
C     8.110314002347490e+00   7.450214733838275e+00  -5.423571000000003e-01  1.52689650e+00   2.35622770e-01   1.03075666e+00
C     4.413161442757794e+00   7.293900790160219e+00  -2.431833000000019e-01 -1.64838811e+00   4.76173340e-01  -6.61859100e-02
C     5.762310568277405e+00   6.880999447530077e+00  -2.835797999999983e-01 -2.74899600e-02  -6.47649800e-01   5.82156690e-01
C     1.086538020618157e+00   1.430845781116126e+00   3.859398300000000e+00  1.27238535e+00  -3.29023944e+00   9.66049190e-01
C     3.482898008818838e+00   8.265688406616699e-01   3.921395700000000e+00  1.65109218e+00  -1.01336193e+00  -2.33998960e-01
C     4.869569069828227e+00   1.213863782724807e+00   3.702387900000000e+00  9.22399680e-01  -9.29807870e-01   2.72822150e-01
C     5.966876739843681e+00   2.487853754176765e-01   3.537611400000000e+00 -2.18608192e+00   2.50883410e-01  -4.50739200e-02
C     7.328958468054249e+00   6.784818696812799e-01   3.524859000000000e+00 -1.01916656e+00  -8.18288190e-01   4.83943030e-01
C     1.274004150034114e+01   7.360399523005007e+00   3.610832700000000e+00  7.30540580e-01  -1.66234416e+00   3.54342480e-01
C     7.600859247548843e-01   5.895871382980000e-04   3.907248900000000e+00  7.19196300e-02   2.13858907e+00  -1.20222891e+00
C     6.268007738737560e+00   6.774512852180630e+00   3.909833700000000e+00 -4.47662000e-01  -2.59056455e+00  -3.98973820e-01
C     7.647332329092070e+00   7.118329052487104e+00   3.923814000000000e+00 -5.55231670e-01   1.80678373e+00  -4.01057980e-01
C     8.692594966551045e+00   6.195765265723279e+00   3.702030600000000e+00 -2.84121495e+00  -1.65368160e+00  -5.83336700e-02
C     9.988343999270095e+00   6.564598972184861e+00   3.486834300000000e+00  3.33017390e+00  -1.60575350e-01   5.36857190e-01
C     1.099608910107901e+01   5.513310533152914e+00   3.497837100000000e+00  1.43910262e+00   1.33843827e+00   2.32280330e-01
C     3.499690091020727e+00   5.951294036402417e+00   3.548229000000000e+00 -1.02678471e+00   1.76935440e-01   1.66640330e-01
C     4.510318890791789e+00   4.972655971580036e+00   3.670593000000000e+00  1.58239948e+00  -1.22352839e+00   2.55093070e-01
C     5.927200700254296e+00   5.367259946887661e+00   3.728265900000000e+00 -8.92392410e-01   1.67182070e-01   1.16865297e+00
C     6.977876159352777e+00   4.380650602379811e+00   3.799056000000000e+00 -2.08825591e+00   2.13302720e-01  -1.77898974e+00
C     8.301788884760086e+00   4.798517099986105e+00   3.659091600000000e+00  1.82645236e+00  -3.86648500e-01   4.90589240e-01
C     9.306622381344066e+00   3.774054413929115e+00   3.613138500000000e+00  1.13798978e+00   4.11407290e-01   7.64437200e-01
C     1.069795081088181e+01   4.127326098723642e+00   3.661047900000000e+00 -1.58472061e+00   1.34550061e+00  -1.08407734e+00
C     2.791423005467215e+00   3.137124121152189e+00   3.733447500000000e+00  1.96966698e+00   8.52753100e-02   1.34902016e+00
C     4.186134976293816e+00   3.539553672691916e+00   3.781165800000000e+00  1.84083430e-01   1.04791700e+00  -1.06568470e+00
C     5.253019304453277e+00   2.560662454854147e+00   3.722500200000000e+00 -1.83714180e-01   1.75801107e+00  -2.77004650e-01
C     6.646615026639784e+00   2.990910282364700e+00   3.612659100000000e+00 -8.97465710e-01   5.13663690e-01   1.42346533e+00
C     7.697419757129793e+00   2.049480322932142e+00   3.641068200000000e+00 -3.21275358e+00  -1.60485540e+00  -7.29848520e-01
C     9.012716628403311e+00   2.381809041302640e+00   3.713474700000000e+00 -1.33636010e-01   2.83180134e+00  -3.17434250e-01
C     2.438591286214653e+00   1.770688810655112e+00   3.974900100000000e+00  9.72026030e-01   1.23505172e+00  -1.41454557e+00
