52
Lattice="8.88768389401873 1.33226762955019e-15 0 4.44384194700937 7.69696003302603 0 0 0 30 " PBC="1 1 1" Properties=species:S:1:pos:R:3:force:R:3 Energy="-415.28723689"
C     1.300132785267777e+01   7.298346939121548e+00  -3.616163999999991e-01  6.21512300e-01  -2.00799268e+00  -6.04160170e-01
C     9.303253284729522e+00   7.093071247239856e+00  -3.533603999999997e-01 -2.49294102e+00   2.10413762e+00  -4.48212200e-02
C     1.062742059732120e+01   6.709437672093390e+00  -2.088660000000004e-01  6.04065540e-01  -7.34170450e-01   2.09723090e-01
C     1.098993651292170e+01   5.347637624865580e+00  -1.982447999999977e-01  6.05875960e-01  -1.79679504e+00  -1.10210520e-01
C     6.823280720881360e+00   6.477587686920922e+00  -7.043792999999994e-01  9.36668650e-01   2.02382184e+00   1.66453245e+00
C     8.251768111965239e+00   6.193920381373688e+00  -4.269725999999991e-01 -2.05263325e+00  -3.97462159e+00  -1.27099446e+00
C     8.556148576233522e+00   4.759393990940817e+00  -4.075844999999987e-01  1.81341484e+00   6.87306500e-02   1.58735402e+00
C     9.990784333611296e+00   4.312631104172294e+00  -2.883840000000006e-01 -2.57597587e+00   3.59152656e+00  -5.53290400e-01
C     1.025100820696267e+01   2.996537375903432e+00  -5.022228000000020e-01  1.51807200e+00  -4.04124213e+00  -7.78440510e-01
C     4.482509417320523e+00   5.809631871898269e+00  -3.209574000000011e-01  2.86021290e-01   6.29117864e+00  -8.00668470e-01
C     5.796124160670265e+00   5.476426854628355e+00  -5.261715000000002e-01  3.01125708e+00   9.03314090e-01   6.27653210e-01
C     6.194054119285531e+00   4.165413966644895e+00  -2.992722000000008e-01 -2.65068410e-01  -3.06201013e+00  -1.45862554e+00
C     7.560562091280389e+00   3.753666629232051e+00  -2.810360999999979e-01  4.82875510e-01  -1.91008590e-01  -1.13067821e+00
C     7.958687090044579e+00   2.328677388033153e+00  -3.690642000000004e-01 -3.18499143e+00   1.82286763e+00   1.04563168e+00
C     9.257286802438315e+00   1.936113568951079e+00  -5.362679999999997e-01  6.95594640e-01   2.67890924e+00  -1.92448500e-01
C     3.504912271208691e+00   4.914202178328203e+00  -2.219000999999992e-01 -4.12037607e+00  -2.51008464e+00   2.06894240e-01
C     3.792540473450167e+00   3.513844671647711e+00  -3.422456999999994e-01 -1.05066459e+00  -6.68365660e-01  -2.06437530e+00
C     5.164701501236417e+00   3.124786817859302e+00  -4.709073000000004e-01 -1.46290690e-01   1.43709333e+00   2.23588243e+00
C     5.473731024122541e+00   1.770032798751755e+00  -3.558212999999988e-01  2.02604938e+00  -1.08743890e+00  -3.80139100e-02
C     6.931570346683489e+00   1.367813989977650e+00  -2.374226999999998e-01 -3.19322347e+00   3.75699780e-01  -7.97804280e-01
C     1.164022145942581e+01   7.682242980605038e+00  -2.188634999999977e-01  1.67293598e+00   4.43514900e-01  -1.29723150e-01
C     2.707580150323373e+00   2.522695044357364e+00  -6.715230000000005e-01  2.49683830e+00   2.85398150e+00   2.00224671e+00
C     3.130143480219709e+00   1.182477426992874e+00  -7.603299000000021e-01 -3.10992257e+00  -1.39372434e+00   9.71489200e-01
C     4.429823579461575e+00   7.813869155895670e-01  -4.425723000000019e-01  2.93150490e+00   9.92406500e-02  -5.21076650e-01
C     6.587133582009107e-01   5.978901569607621e-01  -6.845436000000014e-01  1.16063099e+00  -2.34892349e+00   1.27812267e+00
C     2.030424269224274e+00   1.899314172138848e-01  -7.389861000000018e-01  1.28388727e+00  -8.98438870e-01  -7.94966510e-01
C     3.568517513815688e-01   4.278708523140877e-01   3.624680700000000e+00 -7.85534860e-01  -1.58001051e+00   2.06371415e+00
C     7.145652702989024e+00   7.486346881185504e+00   3.994684500000000e+00 -1.39741830e-01   1.75669549e+00   6.79866700e-02
C     4.069169943448616e+00   2.091738942584851e-01   4.019593500000000e+00  9.04936230e-01  -2.87114010e-01  -8.97866070e-01
C     9.540933104218610e+00   6.868250356875586e+00   3.929428500000000e+00 -1.74514090e-01   3.03113896e+00   8.04409670e-01
C     1.092339269182068e+01   7.320775572770567e+00   3.761621100000000e+00 -1.67606826e+00  -1.10678959e+00   3.22727000e-03
C     1.192648540222396e+01   6.333895526178462e+00   3.664709100000000e+00  1.06693164e+00  -3.70263430e-01   3.68878770e-01
C     4.406380450638570e+00   6.708794283204483e+00   3.594108900000000e+00  1.23624857e+00   1.04322313e+00  -4.17886290e-01
C     5.451932471053373e+00   5.737537064263670e+00   3.577216800000000e+00 -1.60436970e-01  -6.23391880e-01   9.31826670e-01
C     6.814427209906553e+00   6.124506655826338e+00   3.817194900000000e+00 -8.78756800e-02  -4.90917200e-01   8.12347910e-01
C     7.824800488750270e+00   5.121995391896507e+00   4.049605799999999e+00 -1.57472213e+00   7.60801500e-01  -1.61628468e+00
C     9.176407859289101e+00   5.528180521143672e+00   4.132879500000000e+00  1.02828734e+00  -4.74247790e-01  -1.59966490e+00
C     1.021075406567241e+01   4.570950473070331e+00   3.936766200000000e+00  1.51250116e+00  -7.05532070e-01   1.62333912e+00
C     1.162872141683590e+01   4.951168522203486e+00   3.813409500000000e+00 -2.09906559e+00  -8.99125000e-02  -4.63263560e-01
C     3.741055765177535e+00   3.945824930921816e+00   3.750779700000000e+00  6.17140870e-01   1.22323049e+00  -1.05077630e-01
C     5.123354263465959e+00   4.331948549607588e+00   3.619786800000000e+00 -9.66906610e-01   1.01143803e+00  -1.50330790e-01
C     6.135754956336668e+00   3.354720183014701e+00   3.611531100000000e+00 -1.62065711e+00   4.20230010e-01   1.24404740e-01
C     7.445330603355487e+00   3.775396686788747e+00   3.779259900000000e+00  2.73037567e+00  -7.94122520e-01   1.17369099e+00
C     8.482975073655222e+00   2.797279013433994e+00   3.887754600000000e+00  1.33379697e+00  -1.36882713e+00   5.25023100e-02
C     9.895117125730783e+00   3.181369172249440e+00   4.082199300000000e+00 -1.49160736e+00   4.89298210e-01  -2.56372052e+00
C     2.027261010529363e+00   2.217000116778674e+00   3.867090300000001e+00 -2.73524160e-01  -1.24180118e+00   2.56982536e+00
C     3.396236204084310e+00   2.593769542970387e+00   3.881024400000000e+00 -5.01105900e-01  -1.96917330e-01  -6.63950420e-01
C     4.420234746739794e+00   1.628516183761774e+00   3.846776400000000e+00 -1.39352022e+00  -2.27762512e+00   2.54324150e-01
C     5.733693778325517e+00   1.999941841513459e+00   3.648992700000000e+00  3.12785198e+00  -1.14954451e+00   6.58137180e-01
C     6.799630057222925e+00   9.879438434378519e-01   3.703147200000000e+00  1.68725240e-01   9.01128820e-01  -5.20863840e-01
C     8.209523614144517e+00   1.361817519327078e+00   3.716754600000000e+00 -1.93304009e+00   2.51939337e+00  -1.87934060e-01
C     1.668923104453873e+00   8.158413565590581e-01   4.018520400000000e+00  1.10632408e+00  -3.87564010e-01  -2.84104473e+00
