52
Lattice="8.88768389401873 1.33226762955019e-15 0 4.44384194700937 7.69696003302603 0 0 0 30 " PBC="1 1 1" Properties=species:S:1:pos:R:3:force:R:3 Energy="-412.39113613"
C     1.258039425610609e+01   6.683139853606891e+00   7.113449999999999e-02 -1.81614680e+00   3.69950850e+00   4.40415560e-01
C     8.765808507014160e+00   6.416660167685048e+00   1.820460000000000e-02  1.07666648e+00  -1.33901659e+00  -8.36843160e-01
C     1.018438381968340e+01   6.010649374582563e+00  -3.070680000000010e-01 -3.18896012e+00   1.68865490e+00   2.40664718e+00
C     1.047319292850258e+01   4.639901919198279e+00  -1.778115000000007e-01  1.31155733e+00  -6.43168610e-01   1.21236032e+00
C     6.423084268294160e+00   5.841691249815224e+00   9.737040000000000e-02 -3.02211946e+00   2.32151444e+00   1.56155694e+00
C     7.689460571706303e+00   5.329189320156875e+00   1.589946000000000e-01  3.20042906e+00   6.96842413e+00  -1.28823259e+00
C     7.973452467036298e+00   4.044704620673613e+00   3.771840000000000e-02  4.16654712e+00  -3.38263948e+00  -4.62917040e-01
C     9.446217543702861e+00   3.600689240757400e+00  -6.731489999999951e-02 -5.89032850e-01   2.79327300e+00   5.00127060e-01
C     9.840018506556541e+00   2.261365933178797e+00   1.751352000000000e-01 -2.84308387e+00   2.47707247e+00  -8.37709490e-01
C     4.054753990219789e+00   5.375391246372154e+00   2.035593000000000e-01 -2.54268930e+00  -1.88239300e+00  -1.42547155e+00
C     5.357779369227068e+00   4.955267461297862e+00   9.435690000000001e-02  6.48554510e-01  -3.16771644e+00   1.04307551e+00
C     5.598137180376145e+00   3.481495734094426e+00   1.469214000000000e-01  2.94589270e+00   4.51661837e+00  -1.08954459e+00
C     6.941458207215197e+00   3.115251208017336e+00   6.466500000000000e-02  1.81914318e+00  -1.86198341e+00   2.34411970e-01
C     7.363201470494737e+00   1.737679319992053e+00   4.283340000000000e-02  9.69027500e-02   8.30057730e-01   4.38233020e-01
C     8.755053161947563e+00   1.361369633222932e+00   1.876068000000000e-01  2.61156540e-01  -8.39893250e-01   1.28973900e-01
C     3.026995511605501e+00   4.356155257993136e+00   1.274097000000000e-01 -2.51149807e+00   3.64266140e-01  -1.98332833e+00
C     3.325048211638210e+00   3.019518035525802e+00  -2.541060000000073e-02 -2.11379683e+00  -2.68978337e+00   1.91650655e+00
C     4.635011405549642e+00   2.572885458290588e+00   7.702199999999999e-03 -2.03871900e+00  -1.92845456e+00  -4.48106700e-02
C     4.957382541785812e+00   1.208636700198834e+00  -5.638619999999861e-02  1.64824530e-01  -1.74965779e+00   6.68788330e-01
C     6.280055345908207e+00   8.484652295246142e-01  -1.555559999999900e-02  3.16681768e+00  -4.52145612e+00  -7.60046290e-01
C     1.112134829712494e+01   7.059372570775711e+00  -1.095836999999982e-01  2.34615748e+00   1.10359285e+00   2.33808590e-01
C     2.282355180048540e+00   1.945537495903010e+00   1.803486000000000e-01  3.40698264e+00  -4.29400300e-02  -6.39089960e-01
C     2.690165887876012e+00   5.771928005312913e-01   2.881494000000000e-01 -1.72484189e+00  -1.35708937e+00  -5.22894300e-01
C     4.047391740532971e+00   1.087040895340897e-01   1.218186000000000e-01 -2.18656592e+00   9.28709570e-01  -5.44032240e-01
C     3.217334458180040e-01   2.265246124669120e-02   2.632020000000000e-01 -6.24224185e+00  -1.57531951e+00  -1.19521642e+00
C     6.021358691040127e+00   7.278496710112979e+00   2.976285000000000e-01  6.22353100e+00  -7.32917970e-01  -6.29947160e-01
C     7.382039588196712e-01   9.620640468505818e-01   3.496192500000000e+00  1.86002014e+00   1.04241922e+00  -4.04947880e-01
C     3.265667683047618e+00   4.495559596242085e-01   3.418892100000000e+00 -1.76362814e+00  -2.24555654e+00  -2.34895980e-01
C     4.612184143817341e+00   8.580537944515870e-01   3.304542000000000e+00  1.35180340e-01  -1.58459399e+00  -1.07383352e+00
C     1.009341291013277e+01   7.533272706491605e+00   3.042252900000000e+00 -3.21959861e+00   3.80363182e+00   1.94849156e+00
C     6.908167607825779e+00   2.786959160334571e-01   3.204260700000000e+00  4.52275836e+00  -5.64610500e-01  -4.82966280e-01
C     1.237075876769637e+01   6.935064742051204e+00   3.241541400000000e+00  1.15665855e+00   1.33860514e+00   9.05980340e-01
C     4.878522748714554e+00   7.284369259707068e+00   3.417162300000000e+00 -1.18400704e+00   9.60096470e-01   2.47939940e-01
C     5.921940569618009e+00   6.345679571984391e+00   3.466497600000000e+00 -4.15491900e-02  -1.51523372e+00   1.02835025e+00
C     7.323167212716967e+00   6.718842510584447e+00   3.391057200000000e+00 -1.77556702e+00   2.81325805e+00  -5.61836600e-02
C     8.295985005634975e+00   5.794745951200249e+00   3.202060200000000e+00  4.81007656e+00   6.95405390e-01   6.95478480e-01
C     9.752539436293839e+00   6.251342551072700e+00   3.125658300000000e+00 -3.25076686e+00  -5.51120798e+00  -1.20091357e+00
C     1.070776063709419e+01   5.174690781471496e+00   3.021919800000000e+00 -4.10087000e-02   1.48406083e+00   1.32265228e+00
C     1.204130841172920e+01   5.591623483886949e+00   3.249431700000000e+00  1.35712601e+00  -2.93291485e+00   2.08865400e-01
C     4.184292204551293e+00   4.517422118480897e+00   3.505265700000000e+00 -3.31319900e-01   2.19339912e+00  -9.16233210e-01
C     5.572673344824699e+00   4.915095487509286e+00   3.655350000000000e+00 -3.00309600e-02   2.76791844e+00  -2.98168582e+00
C     6.668314663080595e+00   4.093146824075223e+00   3.324167700000000e+00 -6.25666510e-01  -3.52115202e+00   3.09080865e+00
C     8.042509548932443e+00   4.449478589268877e+00   3.343068900000000e+00 -1.44078001e+00  -1.33299684e+00  -8.72475040e-01
C     9.014325033226907e+00   3.413239092548386e+00   3.347954100000000e+00 -2.54418430e-01  -4.66660100e-02  -3.27568330e-01
C     1.034341265701609e+01   3.828803660318508e+00   3.129037800000000e+00  1.22582638e+00  -3.45537565e+00   1.59432886e+00
C     2.477256711217890e+00   2.731247255154226e+00   3.323703900000000e+00 -1.04058227e+00   1.43679818e+00  -5.74278670e-01
C     3.823538492710400e+00   3.164226579840224e+00   3.343786200000000e+00  1.92738808e+00  -1.00489394e+00   5.68936340e-01
C     4.944791138466939e+00   2.194134603678353e+00   3.306671400000000e+00  5.45002040e-01   2.96390892e+00   1.42640610e+00
C     6.384696537541311e+00   2.675560057215577e+00   3.460893000000000e+00 -4.05534873e+00  -3.30527100e-01  -2.55280192e+00
C     7.302317236276103e+00   1.645071882968702e+00   3.311063400000000e+00  6.82244700e-02  -1.20390720e-01   1.20877954e+00
C     8.638707514381446e+00   2.016149869035832e+00   3.482574900000000e+00  2.04075228e+00  -3.02756770e-01  -9.75729320e-01
C     2.157974932096312e+00   1.316013833823752e+00   3.459364500000000e+00 -6.16431030e-01   3.00507135e+00  -1.12718070e-01
