52
Lattice="8.88768389401873 1.33226762955019e-15 0 4.44384194700937 7.69696003302603 0 0 0 30 " PBC="1 1 1" Properties=species:S:1:pos:R:3:force:R:3 Energy="-417.22482628"
C     1.246041536730107e+01   6.563467442090850e+00   1.101261000000000e-01  2.71835220e-01   2.23463874e+00  -7.33835580e-01
C     8.794873321987620e+00   6.489697006257719e+00  -5.165490000000261e-02 -3.42056030e+00  -1.69237246e+00  -6.68685700e-02
C     1.010862649096049e+01   6.074197092951850e+00   1.086330000000000e-02 -9.80434450e-01  -1.92504551e+00  -1.90134200e-01
C     1.045493567054363e+01   4.703888287319676e+00   3.143610000000000e-02  1.04416770e-01  -2.39320432e+00   2.16609340e-01
C     6.346007251786463e+00   5.840006231325457e+00   4.864980000000000e-02 -1.02524752e+00   1.75351070e-01  -1.57877050e-01
C     7.748534829147751e+00   5.494166808105499e+00  -7.667699999998945e-03 -7.65876330e-01  -1.23691250e-01   4.29405330e-01
C     8.087912948460943e+00   4.141821321730539e+00   9.099989999999999e-02  3.51616180e-01  -2.96310169e+00  -1.14901010e-01
C     9.479346429885267e+00   3.668437652032659e+00   1.616520000000000e-02 -2.84450542e+00   2.61479262e+00   4.57412860e-01
C     9.705734668443027e+00   2.302651041326911e+00   5.556000000000000e-02  1.48528121e+00  -1.42631099e+00  -4.79161900e-02
C     3.905246615979004e+00   5.192280567258455e+00   1.136259000000000e-01  9.70080450e-01   1.44227651e+00   3.09998410e-01
C     5.265134996632877e+00   4.870907624825057e+00   1.321794000000000e-01  3.17623942e+00  -1.93817561e+00  -1.58493760e-01
C     5.693540734366924e+00   3.462621787496062e+00   1.750581000000000e-01 -8.51492480e-01   6.99797620e-01  -1.49522390e-01
C     7.073100181301308e+00   3.087666226905020e+00   2.198751000000000e-01 -3.64169880e-01   1.04830086e+00  -9.74614840e-01
C     7.399383098258843e+00   1.680990054827099e+00   1.697061000000000e-01 -2.57200882e+00   1.24302325e+00  -5.17186750e-01
C     8.700529887550188e+00   1.303808841273781e+00   9.272100000000000e-02  1.76800862e+00  -1.17802649e+00  -3.35869810e-01
C     2.898699128266864e+00   4.230971592186815e+00   1.519056000000000e-01  7.31663600e-02  -9.39574590e-01  -5.50231840e-01
C     3.253454318264695e+00   2.823107240389063e+00   1.405272000000000e-01 -8.72038020e-01   5.73654720e-01  -6.82332310e-01
C     4.665734706653148e+00   2.457736627153779e+00   9.353760000000000e-02 -1.56891934e+00   5.83112420e-01  -1.00044130e-01
C     4.955303268063119e+00   1.090677247137470e+00  -6.925379999999848e-02  1.37437433e+00   1.56401350e-01   1.05696400e+00
C     6.364008452284337e+00   7.141844496892358e-01   2.664510000000000e-02 -1.73971611e+00  -9.64304120e-01   2.46007330e-01
C     1.108316089677972e+01   6.991657564306982e+00   8.132339999999999e-02  3.89208817e+00   3.01246332e+00  -3.55235490e-01
C     2.150309571710708e+00   1.837874805060979e+00   3.890850000000000e-02  3.51189767e+00   1.40469479e+00   4.56579310e-01
C     2.577262039845340e+00   4.786305334111308e-01   2.087010000000000e-02 -3.10247069e+00   6.63110670e-01  -4.83627500e-01
C     3.896145313303873e+00   1.079248493006525e-01  -5.727479999999829e-02  3.26754179e+00   1.18641752e+00  -3.23574700e-02
C     4.615199028332361e+00   7.609601611838708e+00   3.897900000000000e-03 -1.38710967e+00  -9.19271940e-01   8.89654960e-01
C     5.961252929072255e+00   7.214886184549848e+00   9.786000000000000e-04  1.28342504e+00  -6.10838430e-01   8.10620700e-02
C     8.573537155999220e-01   1.089940032305797e+00   3.438276900000000e+00  7.46160340e-01  -1.88301030e-01   7.18740200e-02
C     3.199694672203933e+00   5.130849743806218e-01   3.550326300000000e+00  1.14015009e+00  -2.19692165e+00  -8.54170230e-01
C     4.555317587174014e+00   8.775635099484289e-01   3.404093700000000e+00  1.09002177e+00  -8.11509920e-01   9.79112400e-02
C     1.007769437461445e+01   7.560115777626629e+00   3.279130500000000e+00 -9.19989040e-01   1.47188900e+00  -4.55574370e-01
C     6.997531047428643e+00   2.939161926751803e-01   3.176973300000000e+00  6.19210230e-01  -1.13664150e+00   1.16044437e+00
C     1.250595088273191e+01   6.996748102762023e+00   3.237302100000000e+00 -1.70187548e+00   3.63993480e-01  -7.72255400e-02
C     4.979188567111920e+00   7.404925359204152e+00   3.365652300000000e+00 -1.17759663e+00   4.85135600e-01   2.29732870e-01
C     5.964081922794917e+00   6.448354632726982e+00   3.433705500000000e+00  1.54348605e+00  -3.61578686e+00  -3.17293780e-01
C     7.354750441775871e+00   6.758589073392165e+00   3.442615500000000e+00 -1.52192427e+00   2.86896915e+00   6.82444890e-01
C     8.340158838728016e+00   5.783118769439731e+00   3.354526800000000e+00  7.99088270e-01   1.78241340e-01  -7.85037800e-01
C     9.727841762566733e+00   6.198817957040777e+00   3.201418200000000e+00 -6.56768850e-01  -1.47341178e+00   1.02544472e+00
C     1.073928707382298e+01   5.168156447254026e+00   3.198697200000000e+00  1.35915584e+00   3.23418227e+00  -4.97047000e-02
C     1.211649955061267e+01   5.624699322345468e+00   3.226863900000000e+00  8.33817130e-01  -8.13886360e-01   5.36560200e-01
C     4.282979491194006e+00   4.629540579484295e+00   3.359709300000000e+00 -8.44218320e-01   1.38966521e+00  -7.62940950e-01
C     5.634330096524241e+00   5.003376001482172e+00   3.371571000000000e+00 -1.17163310e-01   1.58199970e+00   3.75014100e-01
C     6.636296426295340e+00   3.994356342090173e+00   3.347338200000000e+00 -1.65818097e+00  -1.05544360e-01  -7.35314560e-01
C     7.944879985594024e+00   4.405932345172750e+00   3.277111800000000e+00  3.90045486e+00  -3.67212700e-02   9.36390860e-01
C     9.034563622619523e+00   3.447876798136192e+00   3.343550700000000e+00  6.95132740e-01  -1.08663116e+00  -5.08996660e-01
C     1.046365999823233e+01   3.824276616307264e+00   3.288207600000000e+00 -2.82059146e+00  -3.61118230e-01   1.58105020e-01
C     2.626372316340445e+00   2.895333204222574e+00   3.351069000000000e+00 -3.60913264e+00  -1.89372173e+00   8.53466520e-01
C     3.927302868778265e+00   3.280948130819963e+00   3.340359600000000e+00  1.28676014e+00  -6.83438780e-01   3.80861290e-01
C     4.875351219883743e+00   2.245809992110165e+00   3.362243700000000e+00  3.11330686e+00  -5.15321000e-03  -6.88263560e-01
C     6.284745066769291e+00   2.605321833309813e+00   3.216918600000000e+00 -2.45748940e-01   8.39239770e-01   1.79027503e+00
C     7.348024994749505e+00   1.660824019548498e+00   3.294736500000000e+00 -7.05988510e-01  -4.48888640e-01  -7.55607380e-01
C     8.728724376500535e+00   2.026186704914951e+00   3.364494300000000e+00 -1.27366325e+00   2.63762100e+00  -6.21088800e-02
C     2.217080474207106e+00   1.514940611255097e+00   3.533399400000000e+00  1.38203540e-01  -1.52789740e-01  -7.79468270e-01
