64
Lattice="9.86 0 0 4.93 8.53901048131456 0 0 0 30 " PBC="1 1 1" Properties=species:S:1:pos:R:3:force:R:3 Energy="-515.37039513"
C     9.876732913000000e+00   2.717203648247088e-01  -1.382538000000011e-01 -2.73038780e-01   6.17390800e-02  -1.86204410e-01
C     1.234169791000000e+00   9.868563444371632e-01  -1.663494000000014e-01  6.08848260e-01  -5.64145010e-01   5.13807730e-01
C     1.215819246400000e+00   3.864708324789312e-01   3.519456600000000e+00 -7.26913780e-01   3.11331392e+00  -1.42504520e-01
C     2.431283730000000e+00   1.164911107845285e+00   3.485871600000000e+00 -3.34090380e-01  -1.55813632e+00   2.33194750e-01
C     2.467640705200000e+00   2.904901345410064e-01  -1.071135000000005e-01  1.72521039e+00  -1.49546275e+00  -4.48763900e-02
C     3.730098589700000e+00   9.548025215072343e-01  -6.227729999999809e-02 -7.32117140e-01   2.13681246e+00  -7.84935170e-01
C     3.627761107400000e+00   4.174139863157264e-01   3.511589100000000e+00  1.82203964e+00   7.90216680e-01  -1.94019350e-01
C     4.890956569199999e+00   1.157621354598509e+00   3.518046300000000e+00 -1.53048830e-01  -2.13435117e+00   1.93962150e-01
C     4.985690512500000e+00   2.717399191587080e-01  -1.148711999999996e-01 -2.20263645e+00   1.81829416e+00   6.52284880e-01
C     6.166834406700000e+00   1.022742646050726e+00  -7.450019999999924e-02  1.40697395e+00  -7.24280950e-01  -5.50123090e-01
C     6.134806711000000e+00   4.473377530814192e-01   3.542844000000000e+00 -3.82447660e-01  -5.65556350e-01  -3.08997610e-01
C     7.381572405500000e+00   1.143132617786359e+00   3.584800200000000e+00 -1.33023840e-01  -9.67441920e-01   1.36421960e-01
C     7.395507642099999e+00   2.831519651048088e-01  -1.234536000000013e-01  6.22941400e-01   3.78697700e-01  -5.44640000e-03
C     8.652067816899999e+00   9.655220537034072e-01  -1.521983999999996e-01 -8.16524800e-01   7.85602850e-01   1.23918490e-01
C     8.602752090199999e+00   4.692020601956688e-01   3.659042700000000e+00  1.40992726e+00  -1.28716141e+00  -1.39183791e+00
C     9.850667953700000e+00   1.175059636410660e+00   3.528088800000000e+00 -3.49523890e-01  -8.49915920e-01   1.00707949e+00
C     1.109909106490000e+01   2.386578542038090e+00  -1.503875999999984e-01  2.07019540e-01   1.16020136e+00  -9.48598500e-01
C     2.453372299200000e+00   3.116831388073603e+00  -2.458118999999996e-01  1.44311976e+00  -1.36142991e+00   1.02492588e+00
C     2.464120586600000e+00   2.595112534843629e+00   3.493985100000000e+00 -1.02755561e+00  -1.67790465e+00  -1.79891850e-01
C     3.667037037000000e+00   3.270725875229613e+00   3.471669300000000e+00  2.16111365e+00   1.94491560e-01   5.65804730e-01
C     3.717938892599999e+00   2.419198330582633e+00  -1.520484000000017e-01 -1.21209123e+00  -1.93939440e+00   8.29225300e-02
C     4.920842130600000e+00   3.104575346331659e+00  -1.475742000000011e-01  6.81056330e-01   2.40695021e+00   6.73064700e-02
C     4.918539672700000e+00   2.540128736291546e+00   3.550634400000000e+00 -4.59985480e-01   1.22238562e+00  -1.82060720e-01
C     6.168588599300000e+00   3.214540125562366e+00   3.620498700000000e+00 -2.65427000e-01   1.69244438e+00  -7.20155070e-01
C     6.165855505900000e+00   2.433053472817167e+00  -1.006079999999976e-01  7.97974120e-01   1.99542260e-01  -1.24605540e-01
C     7.435235948499999e+00   3.143692980291063e+00  -1.280076000000001e-01 -8.50600700e-01  -1.87070923e+00   3.49257000e-03
C     7.439605949799999e+00   2.520886844685810e+00   3.556511100000000e+00 -2.83587006e+00   2.55699157e+00   6.37517640e-01
C     8.593382822399999e+00   3.310196597272365e+00   3.573800400000000e+00  2.06650606e+00  -3.67691610e-01  -1.93939980e-01
C     8.661464446200000e+00   2.387601600883699e+00  -1.722210000000004e-01 -2.65669550e-01   1.12450658e+00   3.48023190e-01
C     9.896068964600000e+00   3.124670370474453e+00  -1.834650000000018e-01 -9.10783370e-01  -6.18082390e-01   4.93350100e-02
C     9.835254407299999e+00   2.606403924571647e+00   3.567147300000000e+00  1.20900516e+00  -5.60993680e-01  -4.07653620e-01
C     1.111041093650000e+01   3.285896195858276e+00   3.526772100000000e+00 -1.88884592e+00   8.35858910e-01  -1.03838140e-01
C     1.235237037400000e+01   4.498316052481451e+00  -2.049513000000012e-01 -1.28875776e+00   3.16569133e+00   5.40426700e-02
C     3.708339393800000e+00   5.278553960334055e+00  -1.220372999999988e-01 -1.56353653e+00  -1.78916936e+00  -9.19027030e-01
C     3.690524296500000e+00   4.679878043664023e+00   3.496129200000000e+00 -3.80008420e-01   3.27862000e-01  -2.52431020e-01
C     4.904831068200000e+00   5.389999660152307e+00   3.514862400000000e+00  8.06790390e-01   7.25712580e-01   5.81053190e-01
C     4.894426401800001e+00   4.575366447306054e+00  -1.697090999999986e-01  2.89018344e+00  -1.21649662e+00   3.78059300e-01
C     6.160562016999999e+00   5.278965711419400e+00  -1.440905999999984e-01  3.42270210e-01  -4.45294850e-01   1.73546400e-01
C     6.124225747800000e+00   4.676927730153078e+00   3.603819900000000e+00  1.63729363e+00  -1.07671876e+00  -4.33387620e-01
C     7.392160320000000e+00   5.391461026405854e+00   3.565614300000000e+00 -1.97596781e+00   1.06164116e+00   3.80882500e-02
C     7.422407003900000e+00   4.533451604293612e+00  -9.648569999999879e-02 -5.06633430e-01   1.85801258e+00   1.51207390e-01
C     8.662598001099999e+00   5.253296165064948e+00  -1.568579999999997e-02 -3.67763840e-01  -2.37686780e-01  -1.05316639e+00
C     8.626235701500001e+00   4.744341766260897e+00   3.543640800000000e+00 -4.18710060e-01  -1.60919614e+00   2.64544620e-01
C     9.851389015500001e+00   5.433892137991918e+00   3.524831100000000e+00  7.65324410e-01  -2.08530660e-01   2.34370000e-04
C     9.890032771200000e+00   4.548447899888693e+00  -1.886375999999998e-01  1.70135100e-02   1.76545320e-01   7.98467240e-01
C     1.111489097540000e+01   5.271899680247200e+00  -2.007207000000015e-01  1.33863030e-01  -1.52111840e-01   1.90139080e-01
C     1.109212019280000e+01   4.709344034077882e+00   3.502877400000000e+00 -4.65789300e-02   1.13003610e-01  -1.55048500e-02
C     1.233480478400000e+01   5.399392230119888e+00   3.473594100000000e+00 -4.85499080e-01   1.35092753e+00   4.63020200e-02
C     1.352787977120000e+01   6.656948527629400e+00  -1.712495999999994e-01  1.96023052e+00   2.61073197e+00   5.25229010e-01
C     4.948020678299999e+00   7.412200351526370e+00  -1.266542999999984e-01 -7.24156910e-01  -1.44677461e+00  -3.83595640e-01
C     4.939329088299999e+00   6.837428284623736e+00   3.560209500000000e+00 -2.99639754e+00  -1.35431854e+00  -3.22901180e-01
C     6.111847848900000e+00   7.520526921596489e+00   3.542154900000000e+00  2.41287483e+00   8.49082660e-01   4.62705000e-02
C     6.197354902800000e+00   6.722080000845810e+00  -1.417953000000018e-01 -2.70780610e-01  -1.80144114e+00   2.51653940e-01
C     7.474232149899999e+00   7.365785193820653e+00  -1.065299999999993e-01 -3.49571976e+00   2.39012074e+00   3.36606990e-01
C     7.340396799000000e+00   6.818837065616576e+00   3.537051600000000e+00  1.66916809e+00  -3.20403160e-01   8.85070300e-02
C     8.595375626999999e+00   7.534125039615574e+00   3.530208000000000e+00 -7.53487430e-01   2.58889040e-01  -4.09301300e-02
C     8.647505989299999e+00   6.673477746385851e+00  -1.470150000000103e-02  1.82322726e+00   1.00964680e-01  -5.87281140e-01
C     9.869346491200000e+00   7.443130953017761e+00  -1.089851999999993e-01  2.00320050e-01  -2.85549162e+00   3.84732500e-01
C     9.857156819699998e+00   6.852962964829582e+00   3.531888000000000e+00 -1.48731197e+00  -6.58531050e-01  -4.28733640e-01
C     1.105201291730000e+01   7.549517886857346e+00   3.464812200000000e+00  2.50171751e+00   9.26736320e-01   7.05106200e-01
C     1.107905214320000e+01   6.728568965689772e+00  -1.472867999999998e-01  9.34528510e-01  -1.93954336e+00  -1.77471450e-01
C     1.232246548700000e+01   7.402346248042345e+00  -1.632777000000019e-01 -2.87305480e-01   1.94188000e-01   1.58250110e-01
C     1.234149449820000e+01   6.851041260521058e+00   3.480270300000000e+00 -1.12418276e+00  -3.91975090e-01   1.00081640e-01
C     1.356343941750000e+01   7.576861335436193e+00   3.559217700000000e+00 -2.61353790e-01  -4.90677940e-01   2.09087630e-01
