64
Lattice="9.86 0 0 4.93 8.53901048131456 0 0 0 30 " PBC="1 1 1" Properties=species:S:1:pos:R:3:force:R:3 Energy="-514.51181112"
C     4.913543807900000e+00   8.510089278454764e+00  -1.402484999999984e-01 -5.98268020e-01  -3.16902601e+00   3.07852680e-01
C     1.210299224000000e+00   6.369418697241600e-01  -8.997030000000095e-02 -3.13002040e-01   5.85309750e-01  -1.19874692e+00
C     1.271064629200000e+00   7.954655252415872e-01   3.420252600000000e+00 -5.37243100e-02  -3.99755960e-01   2.73080950e-01
C     2.519126568600000e+00   1.470564134075837e+00   3.540326400000000e+00 -1.31561061e+00   1.38602504e+00   2.61694380e-01
C     7.347053531499999e+00   8.440353570787538e+00  -2.175420000000017e-01  1.41226191e+00   2.18916793e+00   6.06129080e-01
C     3.718439435500000e+00   6.422696145329464e-01  -1.756311000000004e-01 -3.24810995e+00  -1.49376221e+00   4.42950210e-01
C     3.752433313800000e+00   8.082726747199104e-01   3.501402600000000e+00 -1.08683710e+00  -9.35753550e-01  -2.78113010e-01
C     4.914125005600000e+00   1.582871932392151e+00   3.494113800000000e+00  2.27449663e+00  -2.25283660e+00   6.67723500e-02
C     9.808613229599999e+00   8.454473080786533e+00  -1.527111000000012e-01  3.13327862e+00   3.61516940e-01  -5.54710530e-01
C     6.180823232399999e+00   5.979588959600256e-01  -1.869771000000000e-01 -2.28936389e+00   1.74202209e+00   9.25174600e-02
C     6.147768962799999e+00   8.248345978864992e-01   3.442921500000000e+00  9.10219170e-01  -7.48618370e-01  -2.53036300e-02
C     7.390868265599999e+00   1.502195702937529e+00   3.351451500000000e+00  1.15624249e+00  -4.79063120e-01   4.29447420e-01
C     1.232280945310000e+01   8.432011811449627e+00  -1.869683999999978e-01 -3.75374050e-01   2.03004730e-01   8.26869880e-01
C     8.602893827699999e+00   6.426680447619433e-01  -1.089504000000012e-01  2.61833810e-01  -1.49051429e+00  -3.63234490e-01
C     8.674927191599998e+00   7.755935400525312e-01   3.353128200000000e+00 -1.97370724e+00   1.97061781e+00   7.75302610e-01
C     9.884741254300000e+00   1.514788437862700e+00   3.493446600000000e+00  3.95345090e-01  -1.29351497e+00  -1.10937448e+00
C     1.103840365230000e+01   2.073247408364132e+00  -1.141524000000018e-01  2.05822605e+00  -9.41095650e-01   1.72195147e+00
C     2.461726381400000e+00   2.712241458476951e+00   8.741940000000001e-02 -1.89297394e+00   1.86612309e+00  -1.04855991e+00
C     2.474448739400000e+00   2.903830553495872e+00   3.729591000000000e+00  1.68342275e+00   3.23134740e-01  -4.03274750e-01
C     3.722105876500000e+00   3.672392303808228e+00   3.759850200000000e+00 -1.83680140e-01  -5.47976700e-01  -8.15822460e-01
C     3.695965833300000e+00   2.015249936843343e+00   8.508000000000000e-03 -5.79296760e-01   1.82728492e+00  -3.68513890e-01
C     4.883115256300000e+00   2.793076598916604e+00  -4.689420000000055e-02  1.75807623e+00  -2.66127903e+00  -2.82109800e-01
C     4.979551380699999e+00   2.980534349885092e+00   3.541043100000000e+00 -2.54393073e+00  -9.71318800e-02   1.25918230e-01
C     6.176672862600000e+00   3.635040537216088e+00   3.341210400000000e+00  1.57813498e+00   1.41412788e+00   8.65317760e-01
C     6.129541076600001e+00   2.068329023717757e+00  -1.913690999999993e-01  8.07155750e-01  -1.38114959e+00   5.71593310e-01
C     7.403062669899999e+00   2.732705965603214e+00  -1.731797999999998e-01 -2.55393295e+00   1.20270311e+00   6.56641000e-03
C     7.406015493400000e+00   2.901192853158600e+00   3.379709400000000e+00  1.04978083e+00   1.99075399e+00  -7.65177040e-01
C     8.689328756899998e+00   3.662516767407898e+00   3.424631100000000e+00 -2.64041041e+00  -1.39604957e+00   2.74264150e-01
C     8.580746197100000e+00   2.018752468162030e+00  -8.049150000000083e-02  1.88610116e+00   2.23665320e+00  -4.88600260e-01
C     9.836654182199998e+00   2.791366832848194e+00  -5.517389999999978e-02 -5.05595840e-01  -1.75476925e+00   5.99476800e-02
C     9.870700170599999e+00   2.916698500728813e+00   3.529556100000000e+00  1.05011276e+00   1.00111003e+00   2.32461130e-01
C     1.111826418000000e+01   3.620255069789758e+00   3.681723000000000e+00 -2.46182980e-01  -6.11481670e-01   4.12194210e-01
C     2.410104154199999e+00   4.173440176638533e+00   1.003893000000000e-01  1.66427466e+00  -3.57957870e-01   9.85724700e-02
C     3.691123439400000e+00   4.858571610446154e+00   1.275600000000000e-03 -1.41046627e+00   7.81111970e-01   8.78751290e-01
C     3.714003027100000e+00   5.099989844950802e+00   3.728607600000000e+00  1.13853793e+00  -1.03482630e+00  -2.98420130e-01
C     4.985757609799999e+00   5.788456189301385e+00   3.534065700000000e+00 -2.01863595e+00   8.74722730e-01  -3.39084690e-01
C     4.914637626999999e+00   4.166340501765042e+00  -3.984840000000034e-02  8.94126590e-01   1.78169279e+00  -2.90054670e-01
C     6.188663805799999e+00   4.906044068429503e+00  -1.573481999999977e-01 -2.23232226e+00  -1.83424677e+00  -3.43328210e-01
C     6.199319409199999e+00   5.095786517042020e+00   3.350079000000000e+00 -2.28428674e+00  -2.57819792e+00   4.50356870e-01
C     7.373825649999999e+00   5.758723184029816e+00   3.334890300000000e+00  3.55154629e+00   1.95545827e+00   4.10844240e-01
C     7.391423284999998e+00   4.174703437848944e+00  -2.222660999999988e-01  6.35472900e-02  -7.52882650e-01   4.75963200e-01
C     8.596569229299998e+00   4.867180726202194e+00  -1.840994999999985e-01  1.63508377e+00   1.91376382e+00   3.84135680e-01
C     8.633417380399999e+00   5.074830931423052e+00   3.468600900000000e+00  4.85115970e-01  -2.93637810e-01  -4.65777600e-01
C     9.870478862899999e+00   5.766744986645042e+00   3.585054000000000e+00  9.43999970e-01   1.86650380e-01   1.54565020e-01
C     9.872233597799999e+00   4.184015741118013e+00   1.207140000000000e-02 -2.69100203e+00   1.04127751e+00  -6.70954690e-01
C     1.104256994600000e+01   4.932142700060576e+00   1.093710000000000e-01  1.64210897e+00  -8.79407650e-01  -7.42953310e-01
C     1.113639790320000e+01   5.025179147184997e+00   3.770638500000000e+00 -2.09935321e+00   1.27743667e+00  -1.07560200e+00
C     1.233072535690000e+01   5.761814561993891e+00   3.731900700000000e+00  9.64120410e-01   1.23894031e+00   1.87952400e-02
C     3.678251653100000e+00   6.284629824169497e+00   1.834560000000000e-02 -9.73527850e-01   8.40911430e-01  -9.71144770e-01
C     4.876280550800000e+00   7.017671169467358e+00  -1.578737999999973e-01  8.27878290e-01   8.86348250e-01   4.08743870e-01
C     4.938555571300000e+00   7.223754807825556e+00   3.430110300000000e+00  6.95933100e-01  -9.49633850e-01   1.30381300e-02
C     6.196953058499999e+00   7.896607998463985e+00   3.315869400000000e+00 -6.15585990e-01   1.17164505e+00   7.69722460e-01
C     6.121846332600000e+00   6.289782519263444e+00  -2.433443999999980e-01 -3.89090800e-01   1.95679995e+00   5.25010130e-01
C     7.319603390099999e+00   7.057817924969812e+00  -2.556858000000020e-01  1.83015657e+00  -1.99567946e+00  -3.38964410e-01
C     7.426625851400000e+00   7.192462835410653e+00   3.372199200000000e+00  9.03091300e-02  -7.13678100e-02  -5.43491780e-01
C     8.680819281100000e+00   7.900576247414251e+00   3.409175700000000e+00 -5.44197030e-01   7.17783740e-01   3.58099760e-01
C     8.589491869200000e+00   6.326039328541733e+00  -2.430069000000010e-01 -3.52379240e-01  -2.67919390e-01   5.01463230e-01
C     9.821134985899999e+00   7.063114160829928e+00  -1.550589000000002e-01 -5.48336100e-01  -1.73062078e+00  -3.38442000e-02
C     9.899918012800001e+00   7.204331718417434e+00   3.496068300000000e+00  6.73343870e-01  -1.01916891e+00   4.83601680e-01
C     1.115983379210000e+01   7.907372787415701e+00   3.553258800000000e+00 -2.79083856e+00   1.30570007e+00  -6.47822980e-01
C     1.106361370030000e+01   6.353224890816803e+00  -3.850170000000119e-02 -1.53206829e+00  -8.80659320e-01   3.67455390e-01
C     1.226775402320000e+01   7.016214243499261e+00  -3.494069999999994e-02  2.67822634e+00   2.50358310e-01  -2.52103640e-01
C     1.235226906250000e+01   7.199194393542352e+00   3.587262000000000e+00 -1.16384790e-01  -3.48414000e-01   1.12500250e-01
C     1.354996518520000e+01   7.938140123026713e+00   3.462715500000000e+00  1.82036412e+00  -1.84570015e+00  -9.96944600e-02
