32
Lattice="9.94 0 0 4.97 8.60829251361732 0 0 0 30 " PBC="1 1 1" Properties=species:S:1:pos:R:3:force:R:3 Energy="-257.84564407"
C     1.322086381673086e-02   1.021187118294884e-02   3.010073015173524e+00 -8.65501790e-01  -3.10404900e-01  -1.67250580e-01
C     1.250642957664281e+00   7.266595133754992e-01   2.989645593651609e+00 -1.56466280e-01  -4.04199030e-01   1.85309020e-01
C     2.483672668202118e+00   3.301093381212454e-03   2.997800878028182e+00  3.96537160e-01  -1.00324350e-01  -6.17158800e-02
C     3.735107213651774e+00   7.132692152475902e-01   2.997381196376371e+00 -4.84394430e-01   4.86225400e-01  -1.37415540e-01
C     4.968818417332267e+00   3.262297475049779e-03   2.987833585302120e+00  1.15668440e-01  -2.67338090e-01   2.62781020e-01
C     6.203359609381092e+00   7.211353912313043e-01   3.008642644512927e+00  7.19411390e-01  -6.12231660e-01  -1.64328810e-01
C     7.457449567602525e+00  -1.157846198163913e-02   3.001917707882232e+00 -2.91712780e-01   5.64338590e-01   3.57887300e-02
C     8.689118759397003e+00   7.216012338848486e-01   3.011834010330910e+00  6.44090090e-01  -3.90702210e-01  -2.79899400e-02
C     1.248489905996819e+00   2.150084500942465e+00   2.997605996087802e+00 -6.65784310e-01   3.80881910e-01  -4.26157000e-02
C     2.475379715428150e+00   2.857786265413981e+00   2.988926377812814e+00  7.17773990e-01   8.85457800e-01   1.18400980e-01
C     3.732200683714373e+00   2.160066828078558e+00   2.987818792047157e+00 -3.46080600e-02  -5.51040950e-01   2.62625200e-02
C     4.981322004000120e+00   2.867465115080179e+00   2.990658597120314e+00 -3.20614980e-01   4.50305700e-02   1.81116410e-01
C     6.224144559704986e+00   2.144015442866242e+00   3.006787294066542e+00 -5.54486530e-01   3.05938860e-01  -1.17279030e-01
C     7.452384158248029e+00   2.862201539525953e+00   2.997696058856322e+00  4.27168910e-01   5.69161930e-01   2.36423160e-01
C     8.692796542213502e+00   2.149360612182706e+00   3.011121218463530e+00  8.65221500e-02   2.56395030e-01  -6.46229000e-02
C     9.934609814287326e+00   2.877548354058133e+00   3.006278597209937e+00  1.55741970e-01  -3.30598910e-01  -7.39139400e-02
C     2.481059048192684e+00   4.308105622208703e+00   3.007828528117730e+00  3.48093270e-01  -2.81903180e-01  -1.34018800e-01
C     3.731888446540053e+00   5.025380168927907e+00   3.000510987926143e+00 -3.14408000e-02  -7.27140110e-01   1.33370360e-01
C     4.973894733731825e+00   4.298566438657317e+00   3.012748265354720e+00  1.77894190e-01   2.46190000e-01  -2.59270910e-01
C     6.221386694141824e+00   5.018152782142564e+00   2.999709976304734e+00 -3.01100600e-01   3.00839570e-01   2.57676090e-01
C     7.462035944292416e+00   4.312092872020803e+00   3.016007273311872e+00 -3.83259730e-01  -6.45706760e-01  -2.88268840e-01
C     8.691492114863555e+00   5.029971796238114e+00   2.999805726215677e+00  3.07717560e-01  -9.09233100e-02   1.01332030e-01
C     9.925323203282435e+00   4.308237321692424e+00   2.992664881614251e+00  8.84042370e-01   1.80923100e-01   1.78617180e-01
C     1.119494787462485e+01   5.033920124420233e+00   3.007671103958221e+00 -1.00942061e+00  -7.39270980e-01  -1.01091810e-01
C     3.736318995373157e+00   6.445958293887733e+00   3.001872138297899e+00 -3.86492220e-01   6.08351690e-01  -1.13249550e-01
C     4.961356007728762e+00   7.175830644832716e+00   2.996489277488793e+00  9.93087340e-01   1.52318820e-01   1.82219880e-01
C     6.220811241158563e+00   6.459466960785105e+00   3.010907485851474e+00 -5.35613430e-01  -1.92866510e-01  -2.11076490e-01
C     7.457143614762410e+00   7.172389147824940e+00   2.999168310730530e+00 -7.64177000e-03   3.62128820e-01   1.31034080e-01
C     8.700686291311657e+00   6.462151656260608e+00   3.008887944447199e+00 -1.14430210e-01  -3.93825900e-02  -7.46634700e-02
C     9.940650717907348e+00   7.173196169756630e+00   3.008823165698007e+00  5.28824400e-02   1.33258720e-01  -1.50547740e-01
C     1.118033609055487e+01   6.453684734106377e+00   3.002431180639221e+00  4.31532460e-01   4.89570330e-01   4.28679000e-03
C     1.243381786349570e+01   7.171025757383120e+00   2.990120061344899e+00 -3.15195160e-01  -2.82977600e-01   1.54701700e-01
