26
Lattice="8.88768389401873 1.33226762955019e-15 0 4.44384194700937 7.69696003302603 0 0 0 30 " PBC="1 1 1" Properties=species:S:1:pos:R:3:force:R:3 Energy="-208.72193084"
C     1.302830508396813e+01   7.290409987877813e+00  -6.564329999999785e-02 -9.62965600e-01   1.59175701e+00   2.02517320e-01
C     9.280927289523989e+00   7.156810158096288e+00  -1.599038999999998e-01 -1.91824367e+00  -7.96689830e-01   8.12871120e-01
C     1.061107032525084e+01   6.765310597677564e+00  -2.024141999999998e-01  4.31844940e-01  -2.33601614e+00  -2.57844060e-01
C     1.098878649107356e+01   5.361192664204813e+00  -1.925036999999996e-01 -1.80755998e+00  -8.04935900e-02  -1.54545910e-01
C     6.885313554907537e+00   6.539435993485185e+00   4.502640000000000e-02 -6.58974900e-01  -2.45580180e-01   1.07037930e-01
C     8.249272583616730e+00   6.151655219304954e+00  -9.253290000000192e-02  3.62492100e-02   9.02732470e-01  -2.55869010e-01
C     8.614729122757055e+00   4.804568296022490e+00  -1.863141000000006e-01 -1.65705610e+00  -2.27701647e+00   1.30340550e-01
C     9.934044382046649e+00   4.365494441415137e+00  -1.644927000000003e-01  1.76124140e+00   2.97896630e-01   7.36568200e-02
C     1.027163563248406e+01   2.967427319130771e+00  -2.722080000000204e-02  1.05478080e+00   1.54762381e+00   1.00415930e-01
C     4.483166083917923e+00   5.922294354036588e+00  -2.374800000000121e-02 -3.12788030e-01   8.31354200e-02  -7.81035830e-01
C     5.848863943540373e+00   5.532355429233544e+00   6.131700000000000e-03  9.55767670e-01  -3.37958400e-02  -2.56427850e-01
C     6.215682920159450e+00   4.149607951344889e+00  -1.061978999999980e-01 -3.64726290e-01  -2.52273070e-01  -1.28926330e-01
C     7.593681689777730e+00   3.736138188216532e+00  -1.989944999999977e-01 -6.00844400e-01   2.93057316e+00   6.47468820e-01
C     7.927844649512589e+00   2.403896622652730e+00  -1.329336000000012e-01 -3.47627510e-01  -2.45803052e+00   1.78716820e-01
C     9.300859294878704e+00   1.985049147490612e+00   1.946430000000000e-02 -2.54955651e+00   5.20626220e-01  -7.10581690e-01
C     3.430329449894532e+00   4.951107177432046e+00  -1.780940999999991e-01  1.58621196e+00  -4.80789200e-01   1.17034985e+00
C     3.784510806592401e+00   3.559246421898270e+00  -3.861450000000133e-02  1.89482350e-01   2.46416390e-01  -4.72253640e-01
C     5.177119550939804e+00   3.153420894623708e+00  -7.871310000000165e-02 -6.44388850e-01   1.01419493e+00   5.26216490e-01
C     5.503111929532828e+00   1.780387057262512e+00  -3.224970000000127e-02  2.78505330e-01   2.91898850e-01  -6.99475250e-01
C     6.870311052274372e+00   1.382465230364355e+00  -1.355262000000010e-01  2.99700210e-01   1.27444319e+00   1.23434630e-01
C     7.162135396728515e+00   9.324482228343499e-03  -1.890888000000004e-01  3.60191177e+00   6.68615480e-01   6.24033330e-01
C     2.741540745964963e+00   2.591611854165177e+00   6.085170000000000e-02  1.23236705e+00  -7.02415780e-01  -7.79963700e-02
C     3.101604327359338e+00   1.185509413487892e+00   1.459656000000000e-01  3.68879700e-01   1.61201901e+00  -4.57559010e-01
C     4.468410881116566e+00   8.077613188283649e-01  -6.698100000001261e-03  1.22298720e-01   3.10102790e-01   1.13206550e-01
C     7.013966378588248e-01   6.325438722254300e-01   7.498170000000001e-02  7.65428450e-01  -2.38737003e+00   1.27008780e-01
C     2.088215811607787e+00   2.309717620330454e-01   1.733106000000000e-01 -8.59937720e-01  -1.24156472e+00  -6.84760000e-01
