32
Lattice="9.952 0 0 4.976 8.61868481846273 0 0 0 30 " PBC="1 1 1" Properties=species:S:1:pos:R:3:force:R:3 Energy="-257.9075532"
C    -6.044784413624120e-04   4.572635066808283e-04   3.000407140692832e+00  3.72043700e-02   2.64732000e-03  -2.93728000e-03
C     1.244689500520952e+00   7.190382230431929e-01   2.999643430149612e+00 -6.92358100e-02  -2.67207100e-02   6.78575000e-03
C     2.487718199334069e+00   6.056019933138747e-04   2.999458960801558e+00  1.65900000e-04  -3.70392700e-02   4.89916000e-03
C     3.731487662560601e+00   7.184078242678436e-01   2.998873245635088e+00  1.72962000e-02  -1.11842200e-02   1.89053100e-02
C     4.975719065348419e+00   8.324278831984328e-04   3.000052414867445e+00 -1.43468300e-02  -7.74583400e-02   6.08220000e-04
C     6.219073280858266e+00   7.180120654333144e-01   3.000798209034528e+00  4.45143400e-02   2.87803700e-02  -2.17129400e-02
C     7.463613488040837e+00   1.034673533264998e-03   2.999222368558847e+00 -2.70362900e-02  -7.45759800e-02   2.41765000e-02
C     8.706824014198750e+00   7.175698471443236e-01   3.000546754406963e+00  4.40396300e-02   9.08204700e-02  -8.08282000e-03
C     1.243425819570618e+00   2.154836355418322e+00   3.000323361061301e+00  5.09483600e-02   9.33942000e-03  -6.65752000e-03
C     2.487284855856136e+00   2.873487522216480e+00   2.999618921728350e+00  2.92455100e-02  -5.18973400e-02   1.92177800e-02
C     3.731564327248010e+00   2.154216111263846e+00   3.001173464950349e+00 -1.47464800e-02   2.98890800e-02  -2.07187700e-02
C     4.975041417360861e+00   2.872475229835217e+00   3.001190181743228e+00  6.73164000e-02  -5.89543000e-03  -1.64120600e-02
C     6.221236829884979e+00   2.153877215550925e+00   2.999102436048981e+00 -8.88452800e-02   5.75118200e-02   2.67662000e-02
C     7.464523553321999e+00   2.873285537235750e+00   3.000276726865973e+00  9.12640000e-04  -3.71010000e-03  -2.86460000e-03
C     8.707999699036737e+00   2.155913354136731e+00   3.000595740216567e+00  1.74037100e-02  -7.74438900e-02  -1.13940000e-03
C     9.952986472605872e+00   2.873013780677684e+00   3.000638078172994e+00 -7.71605700e-02  -2.31385600e-02  -1.86796000e-03
C     2.488305844013153e+00   4.308613677469303e+00   3.000921439847006e+00 -4.18256900e-02   4.67825700e-02  -1.67645000e-02
C     3.731639681809137e+00   5.027681516179192e+00   2.998897544306048e+00  9.36919000e-03   1.86482900e-02   2.64588300e-02
C     4.975520531643512e+00   4.309323149219376e+00   2.999715687126002e+00  3.07708000e-03  -2.21851000e-02  -7.34460000e-04
C     6.219958838868135e+00   5.026685053792702e+00   2.999374093613020e+00  5.06900000e-04   2.26512100e-02   1.06086500e-02
C     7.464987758824521e+00   4.309703094483317e+00   3.000744012481536e+00 -5.21241700e-02   7.99500000e-04  -1.94030100e-02
C     8.708154356756486e+00   5.028493441459775e+00   2.998819925117939e+00  5.52480000e-04  -8.15391200e-02   1.94126200e-02
C     9.951589129792232e+00   4.308134358392130e+00   3.000156260988970e+00  2.89322600e-02   7.37683200e-02  -1.84810000e-03
C     1.119524968570183e+01   5.026620422845518e+00   3.000823025051274e+00  3.62821700e-02   2.83514200e-02   9.76430000e-04
C     3.731117539708739e+00   6.464914256411601e+00   3.000975043198058e+00  2.96184800e-02  -2.95079900e-02  -1.74993800e-02
C     4.976050764269822e+00   7.183020800398888e+00   3.000023404651506e+00 -4.33817700e-02  -2.55141700e-02   6.08014000e-03
C     6.218825245098369e+00   6.463299930075855e+00   2.999980755110197e+00  4.72865700e-02   2.82000500e-02   1.50523000e-03
C     7.463083535006535e+00   7.182392939602414e+00   3.001141375795314e+00  2.60992800e-02  -2.77668700e-02  -2.35853000e-02
C     8.708006456732610e+00   6.462811403305979e+00   2.999424448777043e+00  2.02669000e-03   9.87753000e-02   8.45655000e-03
C     9.953166970908574e+00   7.181268577535483e+00   3.000309175875491e+00 -7.51029100e-02   6.62156500e-02  -3.55387000e-03
C     1.119629641424974e+01   6.464373181257653e+00   3.001048806222558e+00 -1.53126900e-02  -6.76936100e-02  -4.75026000e-03
C     1.243936237867928e+01   7.182305437196436e+00   3.000828761463338e+00  2.63203600e-02   4.00899200e-02  -4.32512000e-03
