32
Lattice="10.124 0 0 5.062 8.76764118791366 0 0 0 30 " PBC="1 1 1" Properties=species:S:1:pos:R:3:force:R:3 Energy="-256.51557501"
C     1.020133160198822e-02  -2.755765872596391e-03   3.002385325237024e+00 -4.83547450e-01   2.60613700e-01   1.36033800e-01
C     1.261045056687378e+00   7.408429452846466e-01   3.006747866242165e+00  4.30533110e-01  -6.72141250e-01  -1.17180560e-01
C     2.539859038896064e+00  -1.228580899754421e-02   2.996208602610166e+00 -3.99050370e-01   1.18751996e+00   9.27441600e-02
C     3.807887874583445e+00   7.389717148049256e-01   2.991245413036750e+00 -4.88699160e-01  -6.18448380e-01   4.91735800e-02
C     5.047897031447012e+00  -1.180594381465787e-02   2.996370515071392e+00  5.66242500e-01   3.02287360e-01   2.67395000e-02
C     6.317368489388755e+00   7.201438477717028e-01   3.007702321810066e+00  1.25972650e-01   1.31854600e-01  -7.37476000e-03
C     7.588192958903739e+00   6.123252208495585e-03   3.014173324175737e+00  2.99887580e-01  -1.05855020e-01  -9.71666200e-02
C     8.858153365640229e+00   7.346113316520380e-01   3.012212635639805e+00  8.26604000e-03   2.87036600e-02  -1.11646700e-01
C     1.256255002219933e+00   2.193589440806589e+00   3.001003534787928e+00  3.77406710e-01   4.26363200e-02   2.06942200e-02
C     2.527257520265616e+00   2.919502277805847e+00   3.006680791947384e+00  1.86238490e-01  -1.09947320e-01  -1.79704910e-01
C     3.808047740614623e+00   2.192503280713613e+00   2.994884144023996e+00 -2.67141930e-01   1.40118510e-01   3.23470200e-02
C     5.073878576399667e+00   2.916552344413969e+00   2.991978220928952e+00 -3.43801530e-01   4.89880960e-01   1.33226370e-01
C     6.329946282013753e+00   2.185995635462247e+00   3.006418878515742e+00 -3.33213620e-01  -2.55288700e-01  -1.37326860e-01
C     7.583633547517810e+00   2.908181481716682e+00   2.992041591680993e+00  4.78385150e-01   7.69855440e-01   6.91398800e-02
C     8.847648490344682e+00   2.200821066408208e+00   2.994103182367256e+00  5.55337210e-01  -4.25485420e-01   6.15870500e-02
C     1.012864161534866e+01   2.932720452738446e+00   2.990929787775089e+00 -4.72454570e-01  -2.62465570e-01   9.92236800e-02
C     2.523857983858039e+00   4.372832297232052e+00   2.990345074971052e+00  4.99206540e-01   8.87034800e-02   1.24869930e-01
C     3.804111952860620e+00   5.102856184926330e+00   2.993612637522312e+00 -6.51756700e-01   4.13054560e-01   9.43508300e-02
C     5.062753208505374e+00   4.395915206753815e+00   3.001218273243940e+00  2.27982950e-01  -8.15102750e-01  -1.49985750e-01
C     6.323436583204127e+00   5.119381233373100e+00   2.991684093525897e+00  5.98028850e-01  -3.41353400e-01   5.35990900e-02
C     7.607627292959784e+00   4.383521740852046e+00   2.989376262775876e+00 -1.00711423e+00  -2.90539910e-01   3.01124000e-02
C     8.852070057846150e+00   5.109493336747860e+00   2.995727704497348e+00  7.01707230e-01   2.31168040e-01  -3.75130500e-02
C     1.013472533211740e+01   4.384992643353340e+00   3.000684044908580e+00 -4.40714990e-01   1.84839000e-02  -1.04387260e-01
C     1.139403333618966e+01   5.105180779352259e+00   2.996847313490632e+00  1.79087600e-02   7.74471040e-01   2.55763900e-02
C     3.787037781467564e+00   6.567644468444888e+00   3.009450167050851e+00  7.09293330e-01   2.45562890e-01  -1.48549730e-01
C     5.066132114693972e+00   7.306592779220638e+00   3.008974542918113e+00 -1.75039070e-01  -4.01668460e-01  -8.06934000e-02
C     6.330609077308479e+00   6.562958303465274e+00   2.995352306376923e+00 -9.22891100e-02   8.65867930e-01   1.26477700e-01
C     7.594008680089243e+00   7.318668716651674e+00   3.006217851416764e+00  2.97433790e-01  -9.37632700e-01  -2.05538510e-01
C     8.870564060545915e+00   6.575333020031969e+00   2.991371992889417e+00 -8.51914490e-01  -2.45329190e-01   1.27156980e-01
C     1.011852171220783e+01   7.292641703610704e+00   2.997397527214016e+00  4.28915910e-01   4.72916900e-01  -5.61159000e-03
C     1.139613745671647e+01   6.589427446660768e+00   3.003163559870130e+00 -4.97664700e-02  -8.05543110e-01  -1.02378550e-01
C     1.266327946635969e+01   7.313319736892157e+00   2.998238337245151e+00 -4.52243100e-01  -1.76898060e-01   1.82005670e-01
