32
Lattice="9.968 0 0 4.984 8.63254122492328 0 0 0 30 " PBC="1 1 1" Properties=species:S:1:pos:R:3:force:R:3 Energy="-257.759181"
C    -3.134618647635693e-03  -4.073936644325356e-03   2.998977007393094e+00  5.24404040e-01   3.13946900e-02  -2.97381600e-02
C     1.259045371256839e+00   7.172324418174234e-01   3.003529894004184e+00 -6.88435940e-01  -2.08401800e-01  -1.67902390e-01
C     2.492839054856062e+00  -6.584056106596676e-03   2.987952457931563e+00  2.97191120e-01   2.42290920e-01   2.79792000e-01
C     3.744945376224267e+00   7.167880287828300e-01   3.003547989334051e+00 -2.13483470e-01  -1.72660600e-02  -1.83769960e-01
C     4.986174267850402e+00  -1.150403312520705e-03   2.999807728942811e+00  1.06768330e-01  -3.67385540e-01  -6.83382500e-02
C     6.235322160069237e+00   7.143140370727532e-01   2.994277323835206e+00 -8.93130200e-02   8.50831000e-03   1.88434310e-01
C     7.487194952782431e+00   6.349417823826090e-03   3.008648611697182e+00 -5.93296660e-01  -4.97135260e-01  -2.00516130e-01
C     8.722104858539414e+00   7.144063536866611e-01   2.995271556692700e+00  2.95756150e-01   1.80884370e-01   1.46626000e-01
C     1.252720504207874e+00   2.151144498933372e+00   2.996828521366965e+00 -1.61033230e-01   3.25005300e-01   5.75623800e-02
C     2.496544804879004e+00   2.872924563482181e+00   2.991267034807568e+00 -1.09569360e-01   2.35337570e-01  -2.58089800e-02
C     3.744461516909435e+00   2.157005442820387e+00   2.988487310691916e+00 -8.56319200e-02  -7.07220600e-02   1.58210080e-01
C     4.991900153583591e+00   2.870546388760185e+00   3.002214904018861e+00 -3.37218550e-01   3.60610470e-01  -7.77574900e-02
C     6.224892523536529e+00   2.148980842055299e+00   3.009156327167564e+00  4.00347190e-01   3.42694080e-01  -1.99725660e-01
C     7.467579776309901e+00   2.885915625676071e+00   2.993389235084924e+00  3.11865910e-01  -7.32969990e-01   2.63142240e-01
C     8.722204796409901e+00   2.148496706652883e+00   3.003735084009703e+00 -1.95561270e-01   7.22884560e-01  -1.03197270e-01
C     9.966171515995184e+00   2.877743581035821e+00   3.005869144831210e+00  2.04232050e-01  -2.60445190e-01  -3.71872300e-02
C     2.481399248521549e+00   4.319930502163424e+00   2.993332336235570e+00  6.69624260e-01  -4.36288750e-01   1.84355240e-01
C     3.739028470976244e+00   5.039226421127213e+00   3.013240947586991e+00 -2.22065060e-01  -3.91476780e-01  -2.40519410e-01
C     4.989256764878385e+00   4.319694852644229e+00   2.994799150922461e+00 -3.05525070e-01  -3.24632250e-01   1.98510810e-01
C     6.224464163007293e+00   5.034956786552526e+00   3.007602367508063e+00  2.84109690e-01   3.84725600e-01  -1.30696190e-01
C     7.467421260705194e+00   4.317878084027710e+00   3.011989427092402e+00  2.37141470e-01  -1.19923220e-01  -1.63446740e-01
C     8.719223281854765e+00   5.028592114472556e+00   3.000121935798335e+00 -5.22138900e-02   3.86103770e-01   1.61997270e-01
C     9.970512177461620e+00   4.320688680718647e+00   3.007273252647030e+00 -3.29734750e-01  -4.57491910e-01  -4.94858000e-02
C     1.121317165831208e+01   5.027233359638441e+00   3.008432097440946e+00  4.35054700e-02   7.80970150e-01  -1.12651590e-01
C     3.736566500172407e+00   6.465326567198034e+00   3.008688849254573e+00  1.19159090e-01   5.28655360e-01  -5.76198500e-02
C     4.991103664186697e+00   7.189460592883886e+00   2.992463311248097e+00 -3.66358890e-01   1.54183640e-01   6.89366900e-02
C     6.240302447166250e+00   6.482805165887318e+00   2.988447359172314e+00 -6.78097110e-01  -6.33382120e-01   2.38039200e-01
C     7.469469121087410e+00   7.191310440530613e+00   3.010235877682660e+00  5.82718110e-01   1.72636150e-01  -2.38365170e-01
C     8.716045833869378e+00   6.472341913280919e+00   3.007804040877018e+00  1.69662030e-01  -2.97544620e-01  -1.07017610e-01
C     9.965806948411213e+00   7.181167497325869e+00   2.989479273634604e+00  2.74362000e-02   6.10256750e-01   2.02738250e-01
C     1.122030950925100e+01   6.482994355226070e+00   3.000958424078636e+00 -4.57945850e-01  -7.12131270e-01  -5.98204000e-03
C     1.245432971783152e+01   7.196125312233010e+00   3.003995669165203e+00  6.11562910e-01   6.00551000e-02   5.13814600e-02
