32
Lattice="9.624 0 0 4.812 8.33462848602144 0 0 0 30 " PBC="1 1 1" Properties=species:S:1:pos:R:3:force:R:3 Energy="-256.74032584"
C    -1.996450566856070e-04   5.301007312218325e-04   2.998797275185811e+00  1.24507800e-02  -2.96124400e-02   9.02622000e-03
C     1.202524412169752e+00   6.937024685084257e-01   2.999019166659014e+00  3.77568900e-02   1.04706160e-01  -1.41668000e-03
C     2.405245142068575e+00  -3.715808907344272e-04   2.999751622542999e+00  3.87406400e-02   4.37546900e-02  -1.19086000e-03
C     3.609093393062012e+00   6.943579558367741e-01   3.000445638117955e+00 -6.51673500e-02   2.63265400e-02  -7.97859000e-03
C     4.811288912112854e+00   9.097505519566147e-04   2.998862894549234e+00  7.27040400e-02  -4.24189200e-02   1.92668300e-02
C     6.015410144829490e+00   6.943534091896150e-01   3.000141207727240e+00 -4.69625100e-02   6.00723900e-02  -1.09935600e-02
C     7.217134770974260e+00  -7.263678172617817e-04   3.000723591432233e+00  1.06828200e-01   4.61399600e-02  -4.75617000e-03
C     8.422126637351182e+00   6.941034724077708e-01   3.000462728213301e+00 -1.37421530e-01   6.20308400e-02  -1.51413600e-02
C     1.203905592300424e+00   2.084606545137750e+00   2.999001616372555e+00 -1.30171410e-01  -1.13813540e-01   1.10902400e-02
C     2.404890965808459e+00   2.777415107329951e+00   3.000909810863251e+00  7.94059200e-02   5.05310600e-02  -1.31908100e-02
C     3.608033622482202e+00   2.083467306451122e+00   3.001101682209542e+00  6.20265300e-02   6.97694000e-03  -6.52239000e-03
C     4.812079795675645e+00   2.778671151676644e+00   2.999556130608200e+00 -3.05651300e-02  -8.83018000e-02   4.70139000e-03
C     6.015448721232002e+00   2.084462230871944e+00   2.998841001595290e+00 -3.32620000e-03  -4.36212100e-02   1.73321600e-02
C     7.218601847221758e+00   2.779385695120388e+00   3.000597086564438e+00 -6.04095000e-02  -6.90065800e-02  -1.64818800e-02
C     8.420471748244907e+00   2.084353127569614e+00   2.999045361771826e+00  6.50739900e-02  -4.30934500e-02   1.63778900e-02
C     9.623874631823981e+00   2.779192576120921e+00   2.999503435640987e+00  2.59039600e-02  -6.31990800e-02  -3.54000000e-05
C     2.405489387464639e+00   4.166424091755235e+00   2.998843596900636e+00  3.08150800e-02   7.00406800e-02   1.04580900e-02
C     3.609430278292254e+00   4.861172794092934e+00   2.999435905262450e+00 -5.70650900e-02   3.02911900e-02   1.92391000e-03
C     4.811979725021229e+00   4.166239633294270e+00   3.000178326958814e+00 -9.82438000e-03   8.86852500e-02  -4.69239000e-03
C     6.014150028951224e+00   4.862081485967628e+00   3.000480618614211e+00  3.22438200e-02   8.59810000e-03   3.79759000e-03
C     7.217043216635759e+00   4.167107461717412e+00   3.000467726779493e+00  3.94619300e-02   5.99435800e-02   7.50950000e-04
C     8.420793515322483e+00   4.860783804868062e+00   3.000086366752633e+00 -1.49089900e-02   1.11791010e-01   1.01007200e-02
C     9.624394089916400e+00   4.167350066214331e+00   3.001069694982914e+00 -1.56823700e-02   3.98084900e-02  -1.86355400e-02
C     1.082720825142745e+01   4.862837201854021e+00   2.999127764138176e+00 -1.33354300e-02  -3.36650100e-02   9.40235000e-03
C     3.608132098891485e+00   6.251710947956712e+00   2.999753810469787e+00  6.77791500e-02  -8.32489400e-02  -5.55210000e-03
C     4.811194842198264e+00   6.946552323995631e+00   2.999633724658548e+00  5.20575700e-02  -6.23012900e-02   4.74397000e-03
C     6.015603453920146e+00   6.251515115668830e+00   3.000922234455441e+00 -8.65038900e-02  -7.09993000e-03  -1.41249200e-02
C     7.218297555330176e+00   6.946127505847468e+00   2.999636449410799e+00 -2.36403000e-02  -3.10065100e-02   6.44424000e-03
C     8.420446446507588e+00   6.251923866757057e+00   2.999826987402830e+00  7.80053800e-02  -9.08253900e-02   2.67613000e-03
C     9.625118405153440e+00   6.945916978594949e+00   3.000292799902823e+00 -1.33684400e-01   3.25587300e-02  -1.10333000e-02
C     1.082607307881092e+01   6.252052835672527e+00   2.999879488593153e+00  9.24536900e-02  -5.92798700e-02  -6.24826000e-03
C     1.203018860541222e+01   6.945302715498642e+00   2.999367286914465e+00 -6.50391000e-02   1.82383700e-02   9.90155000e-03
