32
Lattice="9.86 0 0 4.93 8.53901048131456 0 0 0 30 " PBC="1 1 1" Properties=species:S:1:pos:R:3:force:R:3 Energy="-257.54103774"
C     1.189341498200000e+00   9.085848711139199e-01   3.357758700000000e+00  1.43097643e+00  -9.83944150e-01   1.38411900e-02
C     2.465445770600000e+00   1.594663793524402e+00   3.339694500000000e+00 -5.90561590e-01   7.47911580e-01   8.01656100e-02
C     3.694436990999999e+00   8.744484689180241e-01   3.408766800000000e+00 -5.49670690e-01   2.74451300e-02   1.80837270e-01
C     4.925805506700000e+00   1.580437204333988e+00   3.417719400000000e+00 -5.44052450e-01   8.94213660e-01  -2.53382740e-01
C     6.155799982100000e+00   9.192443740664185e-01   3.424852500000000e+00  7.32400330e-01  -1.75908965e+00   2.11189180e-01
C     7.413123419499999e+00   1.596995541116175e+00   3.423121500000000e+00 -1.60153238e+00   3.70990030e-01  -2.50719370e-01
C     8.612745890399999e+00   8.677135805722384e-01   3.417396600000000e+00  3.91601370e-01   2.09125560e-01  -3.07511240e-01
C     9.815366491499999e+00   1.599205266248190e+00   3.317830200000000e+00  1.36470575e+00   1.10457060e-01   6.06837130e-01
C     2.499684029000000e+00   3.048799554557557e+00   3.309183900000000e+00 -2.28935370e+00  -1.85161363e+00   1.49164970e-01
C     3.699923883799999e+00   3.729457742335125e+00   3.330430500000000e+00  3.67987340e-01   6.28463070e-01   1.97449950e-01
C     4.909655664799999e+00   2.996724740705696e+00   3.371328600000000e+00  8.90150580e-01   8.98069260e-01   1.44324240e-01
C     6.144095422600000e+00   3.729175271868447e+00   3.408001800000000e+00  9.48302700e-02   7.80545500e-02  -1.60607630e-01
C     7.381407644899999e+00   3.029845256824787e+00   3.382607700000000e+00  3.00788620e-01  -7.72814540e-01   3.61280320e-01
C     8.610378208600000e+00   3.720305801682871e+00   3.386749500000000e+00  6.30915560e-01   1.26966526e+00   9.37297600e-02
C     9.868329777299998e+00   3.013653585152611e+00   3.342879600000000e+00 -9.29615330e-01   8.56532480e-01  -8.24671000e-02
C     1.110017467890000e+01   3.745995329321846e+00   3.338345700000000e+00  3.27883760e-01  -3.15220130e-01  -2.55161880e-01
C     3.666183407500000e+00   5.148932208198178e+00   3.370728600000000e+00  1.62930981e+00   6.98742630e-01  -1.85405460e-01
C     4.924602685300000e+00   5.862661642004367e+00   3.374384400000000e+00 -4.75208500e-01  -7.26548460e-01   4.49837990e-01
C     6.153514532699999e+00   5.162862579115040e+00   3.429336000000000e+00  1.18089040e-01  -1.67491770e-01  -3.90503860e-01
C     7.383833500700000e+00   5.915002531422784e+00   3.439068300000000e+00 -2.07378700e-02  -2.54059909e+00   1.81198860e-01
C     8.604774031100000e+00   5.164433415482942e+00   3.449735700000000e+00  7.27882070e-01  -3.52102480e-01  -5.01649090e-01
C     9.869395248900000e+00   5.855635231840795e+00   3.411601800000000e+00 -1.20050284e+00   2.71531580e-01   3.77223110e-01
C     1.110215017920000e+01   5.174821890242804e+00   3.351705600000000e+00 -5.30625600e-01  -8.43853290e-01   2.95004550e-01
C     1.232031260530000e+01   5.888566779657962e+00   3.387087300000000e+00  7.43840000e-03  -9.30576440e-01  -2.86240590e-01
C     4.954839607799999e+00   7.267883303914833e+00   3.409125000000000e+00 -1.26193394e+00   8.10751410e-01   4.38581000e-02
C     6.149564173000000e+00   8.001400528266746e+00   3.429918600000000e+00  3.95200650e-01   9.68912350e-01  -4.04305410e-01
C     7.386928406799999e+00   7.303005961821170e+00   3.435642000000000e+00 -6.60321160e-01   7.63078150e-01   3.50746530e-01
C     8.597868235000000e+00   7.999589233363728e+00   3.489440400000000e+00  1.36066522e+00  -1.12005330e-01  -4.23769510e-01
C     9.837975865899999e+00   7.270160572619744e+00   3.485616600000000e+00  5.81184420e-01   1.21892419e+00  -4.31740300e-01
C     1.107411627650000e+01   8.018558901315362e+00   3.431397900000000e+00  3.71235550e-01  -5.23575100e-01   1.27456520e-01
C     1.232518502290000e+01   7.288540621897735e+00   3.397748400000000e+00 -9.18763800e-02   1.31840566e+00   3.61858520e-01
C     1.358095348900000e+01   7.989332173975152e+00   3.430266000000000e+00 -9.77252750e-01  -2.61839540e-01  -2.92539600e-01
