32
Lattice="9.86 0 0 4.93 8.53901048131456 0 0 0 30 " PBC="1 1 1" Properties=species:S:1:pos:R:3:force:R:3 Energy="-256.60357251"
C     1.215346360800000e+00   8.585271423176447e-01   3.780108300000000e+00 -1.72894723e+00   2.52712189e+00   6.27051690e-01
C     2.403722614300000e+00   1.596382269383501e+00   3.820856700000000e+00  1.28746771e+00  -1.62907422e+00   5.83496600e-02
C     3.623314444600000e+00   8.514225148180753e-01   3.764726700000000e+00  2.84626679e+00   2.26310835e+00  -8.42494200e-02
C     4.911225968399999e+00   1.625137472565007e+00   3.740508600000000e+00 -6.88217780e-01  -2.19179719e+00  -5.76476800e-02
C     6.167898843000000e+00   8.602733699608048e-01   3.649887900000000e+00 -2.72682509e+00   1.90498167e+00   8.09181530e-01
C     7.354565964100000e+00   1.612357904090534e+00   3.713549400000000e+00  1.22526430e+00  -1.89427136e+00   2.00734240e-01
C     8.593646429500000e+00   8.843971846381672e-01   3.740684400000000e+00  3.16173210e-01  -4.53251270e-01   9.25102690e-01
C     9.826045463100000e+00   1.577428398601255e+00   3.881031300000000e+00 -3.65095960e-01   6.51915020e-01  -1.24260929e+00
C     2.404787099900000e+00   2.990111874819670e+00   3.906982500000000e+00  1.62772811e+00   6.75556070e-01  -1.61475430e-01
C     3.644699700000000e+00   3.728757543475765e+00   3.903575400000000e+00  6.38029680e-01  -1.30598940e-01  -6.66430060e-01
C     4.916629051199999e+00   3.038368982476027e+00   3.801585300000000e+00 -1.22892661e+00  -8.30228480e-01  -1.47404260e-01
C     6.152045639199999e+00   3.711104505550042e+00   3.704068500000000e+00 -8.88406110e-01   1.05648030e+00   8.99422820e-01
C     7.358206226800000e+00   2.994129564640614e+00   3.804884100000000e+00  7.47923200e-01   1.83951963e+00  -1.21953444e+00
C     8.607685787699999e+00   3.742901475044732e+00   3.761064600000000e+00 -1.14975789e+00  -2.75626490e+00   6.57756760e-01
C     9.802832163700000e+00   3.038273260168546e+00   3.834868500000000e+00  1.30029291e+00  -2.60418653e+00   2.34149580e-01
C     1.105883490340000e+01   3.675502126034939e+00   3.865834800000000e+00 -1.08681672e+00   2.40321409e+00   2.20740920e-01
C     3.663033088200000e+00   5.156541747387431e+00   3.810057599999999e+00 -1.01860864e+00  -9.63807400e-01   6.56304820e-01
C     4.904290592300000e+00   5.831623534371034e+00   3.776388600000000e+00 -5.44068100e-01   1.95016777e+00  -5.68965160e-01
C     6.108152567399999e+00   5.148850148307465e+00   3.703806600000000e+00  2.24244057e+00  -1.37296326e+00  -5.82589100e-02
C     7.377462905400000e+00   5.816851302410949e+00   3.657888900000000e+00 -1.19601158e+00   1.76238949e+00   6.37364940e-01
C     8.621238061900000e+00   5.100359584104585e+00   3.731315700000000e+00 -2.03359292e+00   2.75608107e+00  -8.44420090e-01
C     9.792641557899998e+00   5.842454415263866e+00   3.667437300000000e+00  2.66827714e+00  -3.68032410e-01   1.03300628e+00
C     1.104583045080000e+01   5.122168985381448e+00   3.842933700000000e+00 -8.67661600e-02   1.02117760e-01  -9.19873460e-01
C     1.226853661140000e+01   5.840571648843132e+00   3.804908100000000e+00  3.66417310e-01   1.58138368e+00  -5.00021830e-01
C     4.906659309400000e+00   7.274936526571313e+00   3.730283400000000e+00 -5.10568450e-01   9.46662800e-02   5.36947200e-01
C     6.130932717000000e+00   8.033484835464087e+00   3.715519200000000e+00  2.48117100e-02  -3.59704499e+00   8.81568800e-02
C     7.341456798299999e+00   7.271287209662476e+00   3.708481200000000e+00  2.32820571e+00  -2.62205720e-01  -4.69190580e-01
C     8.655287649199998e+00   7.992664949765495e+00   3.702321600000000e+00 -3.74859449e+00  -8.74762470e-01  -5.71992900e-02
C     9.842579401300000e+00   7.258459054218371e+00   3.650314200000000e+00 -1.21468280e-01   4.14542170e-01   3.48516190e-01
C     1.105561112710000e+01   7.994317504463690e+00   3.708804300000000e+00  2.25816530e-01  -9.93049600e-02  -1.04654299e+00
C     1.227168574750000e+01   7.321268087364431e+00   3.671497800000000e+00  8.05803300e-01  -3.09152822e+00   1.40406820e+00
C     1.351613508150000e+01   7.975441338676812e+00   3.789973500000000e+00  4.71753830e-01   1.13607706e+00  -1.29303148e+00
