32
Lattice="9.86 0 0 4.93 8.53901048131456 0 0 0 30 " PBC="1 1 1" Properties=species:S:1:pos:R:3:force:R:3 Energy="-256.77459357"
C     1.270350814500000e+00   6.241380504599241e-01   3.547995900000000e+00 -6.83051300e-01   1.70903218e+00   1.06285020e-01
C     2.501521440000000e+00   1.344669745404586e+00   3.666865800000000e+00  4.35713740e-01   8.75935100e-01  -8.10696720e-01
C     3.752060260700000e+00   6.454232418834200e-01   3.510292200000000e+00 -1.55337793e+00  -1.11040840e-01   2.91560080e-01
C     4.937501438700000e+00   1.397318466150807e+00   3.526774200000000e+00  4.89474430e-01   3.90816290e-01  -3.34590790e-01
C     6.159106976800000e+00   6.830231521201088e-01   3.460140300000000e+00  1.56039245e+00  -6.82216520e-01   4.49147730e-01
C     7.441528452599999e+00   1.329071364180560e+00   3.458159700000000e+00 -2.61358947e+00   2.58000550e+00   8.08871000e-03
C     8.617134329899999e+00   6.556031086172568e-01   3.478391400000000e+00  3.69724915e+00  -6.76135030e-01   9.31106500e-02
C     9.899046536699998e+00   1.364641380845943e+00   3.533821500000000e+00 -6.81852210e-01   9.29290880e-01   1.13102340e-01
C     2.504250540100000e+00   2.810715291304721e+00   3.736128000000000e+00  2.71455220e-01  -1.87375495e+00  -2.67143690e-01
C     3.732609488000000e+00   3.524940756229693e+00   3.698409900000000e+00 -6.39460900e-01   2.08439920e-01   5.41025160e-01
C     4.931052653599999e+00   2.853028906106579e+00   3.564270600000000e+00  1.39966563e+00  -2.56154198e+00  -4.26736960e-01
C     6.190994167500000e+00   3.503654454734834e+00   3.420655800000000e+00  1.65357590e-01  -6.13292280e-01   1.03146148e+00
C     7.442697207699998e+00   2.769145338925565e+00   3.463851000000000e+00 -9.43317510e-01   4.01220930e-01  -4.35872930e-01
C     8.628450799800000e+00   3.533798442580806e+00   3.500016300000000e+00  1.68358309e+00  -1.06082913e+00   6.67412350e-01
C     9.914887612699998e+00   2.826277637904521e+00   3.597237600000000e+00 -1.59360435e+00  -1.73497725e+00  -5.36572510e-01
C     1.114430340470000e+01   3.505534574062321e+00   3.671726400000000e+00 -6.49949830e-01   1.24782870e-01   5.14113780e-01
C     3.755864002200000e+00   4.937269521952768e+00   3.781353000000000e+00 -9.63541160e-01   2.56228740e-01  -9.43557720e-01
C     4.933544571400000e+00   5.644459952313582e+00   3.543696000000000e+00  1.90928101e+00  -7.58403790e-01  -9.26994900e-02
C     6.185167893499999e+00   4.899940981469133e+00   3.458598600000000e+00 -1.87507700e-02   1.92342632e+00  -2.29231710e-01
C     7.416413553600000e+00   5.649967443292972e+00   3.424227900000000e+00 -8.27128740e-01  -8.17178000e-03   4.91770910e-01
C     8.622051265400000e+00   4.951515153136552e+00   3.550291800000000e+00  1.46756195e+00  -1.87024080e-01  -1.04934642e+00
C     9.906660477999999e+00   5.637405192635216e+00   3.550626600000000e+00 -8.62058200e-01  -4.31986300e-02   7.58286010e-01
C     1.110597620430000e+01   4.907826074526575e+00   3.702782100000000e+00  1.85411658e+00   1.64934073e+00   9.18407000e-03
C     1.239475333750000e+01   5.652740486946352e+00   3.785599200000000e+00 -2.15997164e+00  -1.91216109e+00  -6.70464750e-01
C     4.957716114900000e+00   7.053383104486919e+00   3.415055400000000e+00 -1.98646970e-01   4.63984180e-01   9.34146090e-01
C     6.171836926999999e+00   7.770911287885346e+00   3.437298300000000e+00  1.30361038e+00  -5.84739890e-01  -1.62101710e-01
C     7.422647538600000e+00   7.080054618331094e+00   3.431170800000000e+00 -7.03073580e-01  -1.11777828e+00  -4.71140580e-01
C     8.657899957600000e+00   7.735146837951333e+00   3.387213300000000e+00  9.26766190e-01   1.96353595e+00   1.32089362e+00
C     9.909348363299999e+00   7.067228597639610e+00   3.536657700000000e+00 -1.85157600e-02  -4.31079780e-01  -6.12967280e-01
C     1.113972866050000e+01   7.802090545361913e+00   3.563415900000000e+00 -5.32136140e-01  -1.39068730e+00  -4.65250710e-01
C     1.237690540640000e+01   7.013352137966574e+00   3.590753400000000e+00 -3.99597200e-02   3.68943808e+00   3.51257460e-01
C     1.361266694650000e+01   7.783543985379563e+00   3.502914000000000e+00 -1.48224122e+00  -1.41844508e+00  -1.72471480e-01
