26
Lattice="8.88768389401873 1.33226762955019e-15 0 4.44384194700937 7.69696003302603 0 0 0 30 " PBC="1 1 1" Properties=species:S:1:pos:R:3:force:R:3 Energy="-208.75069871"
C     1.258477832848497e+01   6.849450301093509e+00   5.389380000000000e-02  4.73250760e-01   2.97349430e-01  -1.01199020e+00
C     8.806916844745814e+00   6.601350186027305e+00  -6.718620000000186e-02 -2.51918690e-01   5.14228470e-01   4.64599310e-01
C     1.018484909007546e+01   6.226800640077844e+00  -9.689790000000187e-02 -3.81945670e-01  -8.62528970e-01  -1.13258520e-01
C     1.052345726929638e+01   4.817682530460805e+00  -1.167644999999986e-01  7.19493950e-01   8.39250830e-01   5.62262770e-01
C     6.400480710801167e+00   6.029236224571808e+00  -5.575499999999778e-02  8.24373580e-01   1.11352160e+00   8.90201750e-01
C     7.757422335353684e+00   5.601324809278363e+00  -1.154670000000024e-02  6.77276950e-01   1.42172255e+00  -8.43495740e-01
C     8.075918130344700e+00   4.236801346683138e+00  -6.816990000000089e-02  2.05782567e+00  -1.51815530e-01   1.74971750e-01
C     9.495399364629471e+00   3.825588024357175e+00  -9.829380000000043e-02 -7.69421520e-01   1.32435253e+00  -4.61237500e-02
C     9.836478097807770e+00   2.459654709593255e+00  -6.950730000000149e-02  9.75793980e-01   6.11267430e-01   4.28501840e-01
C     4.058474241435862e+00   5.460023401290820e+00   7.479000000000000e-03 -1.76896971e+00   9.97564880e-01  -3.62839100e-02
C     5.377374001534976e+00   5.069249818142125e+00  -3.882420000000053e-02  1.17930007e+00  -3.58978110e-01   5.06775300e-02
C     5.711256243744363e+00   3.691125365356288e+00  -5.231580000000235e-02  2.73407640e-01   1.63112400e-02  -2.55683770e-01
C     7.049204798959330e+00   3.282025166436961e+00  -4.581269999999904e-02  1.62680472e+00  -1.03408897e+00  -1.98695360e-01
C     7.455771008833141e+00   1.887567379619463e+00  -4.775400000000118e-02 -9.08151730e-01   1.17279888e+00   1.52302480e-01
C     8.827811253001329e+00   1.507750034225471e+00  -1.337790000000183e-02 -6.86115470e-01  -3.84713520e-01  -2.35881150e-01
C     3.056435031353290e+00   4.462330434339769e+00  -3.439050000000066e-02 -2.69042349e+00   6.89161380e-01  -1.73605440e-01
C     3.359556555252527e+00   3.110889956525137e+00  -1.340849999999705e-02 -8.88020160e-01  -2.05812699e+00  -4.46881690e-01
C     4.710422914627475e+00   2.717276810882174e+00  -9.082020000000313e-02 -8.39655300e-01  -5.12422570e-01   8.77525510e-01
C     5.031794053108420e+00   1.349421488229163e+00  -4.535160000000005e-02  5.93106860e-01  -1.53203146e+00  -1.67689180e-01
C     6.400375966156561e+00   9.646943290016338e-01  -4.818720000000098e-02  4.27970400e-01  -2.65132679e+00  -2.08499360e-01
C     1.119919667582025e+01   7.219321095949534e+00  -7.556100000000043e-02  5.16408050e-01   1.39070573e+00   7.69559430e-01
C     2.316755093932936e+00   2.057746781034762e+00   5.115000000000000e-04  1.00730157e+00   2.81675833e+00  -1.22960000e-01
C     2.709097232357765e+00   7.258973755844885e-01   4.790550000000000e-02 -1.88977817e+00  -1.15362802e+00  -2.84687470e-01
C     4.021638254561574e+00   3.077477837882909e-01  -2.056799999998304e-03  2.06258325e+00   6.46721000e-02  -2.53061880e-01
C     3.362964492216347e-01   1.594001937412850e-01   1.993320000000000e-02 -2.73754732e+00  -1.61110560e+00   3.27923200e-01
C     6.110455011400033e+00   7.442046411976037e+00   3.050460000000000e-02  3.97049770e-01  -9.58898890e-01  -2.99728170e-01
