32
Lattice="9.86 0 0 4.93 8.53901048131456 0 0 0 30 " PBC="1 1 1" Properties=species:S:1:pos:R:3:force:R:3 Energy="-256.83958037"
C     1.211442688200000e+00   7.396127115929552e-01   3.612941100000000e+00  1.27830310e-01   2.45995040e-01  -7.40610990e-01
C     2.452110219200000e+00   1.465423991327296e+00   3.597261900000000e+00  4.71632400e-01  -1.67433880e-01  -1.16628020e-01
C     3.730798748300000e+00   7.509683146797832e-01   3.495392700000000e+00 -4.17124706e+00  -1.04982015e+00   6.24629700e-02
C     4.896623111199999e+00   1.447917653601619e+00   3.513348300000000e+00  1.86742454e+00   8.59847470e-01   1.26512010e-01
C     6.125556798500000e+00   7.712580282615208e-01   3.514616100000000e+00  2.36800249e+00  -1.90739939e+00  -3.29322570e-01
C     7.425603468000000e+00   1.427294406270533e+00   3.500781600000000e+00 -3.56526369e+00   2.08353665e+00  -1.85024560e-01
C     8.624114421100000e+00   7.708491804397384e-01   3.496259400000000e+00 -1.32119580e-01  -3.04677022e+00  -3.78998810e-01
C     9.814092480899998e+00   1.444930110004982e+00   3.522882900000000e+00  3.06087986e+00   1.59861420e+00   7.60621590e-01
C     2.458943741500000e+00   2.894754524646785e+00   3.630745200000000e+00  2.20729020e-01  -6.81716990e-01  -1.36416800e-01
C     3.737223820100000e+00   3.565345048288223e+00   3.583394100000000e+00 -3.64252890e+00   2.38940995e+00   4.45982910e-01
C     4.888042692700000e+00   2.856941736878829e+00   3.562470300000000e+00  2.83391890e+00   6.15413270e-01  -2.63206140e-01
C     6.142057360600000e+00   3.598223739630520e+00   3.530332200000000e+00  3.97140140e-01  -1.47795871e+00  -1.58222300e-01
C     7.380252792399999e+00   2.867804468280752e+00   3.461784300000000e+00  3.59484360e-01  -1.66882700e-01   6.93879490e-01
C     8.609673760899998e+00   3.582146576088880e+00   3.509401500000000e+00 -1.19851440e-01   1.20651670e+00  -6.39465900e-02
C     9.867543787399999e+00   2.884801539421402e+00   3.572827800000000e+00 -1.37847307e+00  -1.97863070e-01  -2.77320320e-01
C     1.107726506750000e+01   3.602422114913221e+00   3.632020200000000e+00  1.10974526e+00   4.54946230e-01  -1.77922970e-01
C     3.692228844000000e+00   5.032286848728339e+00   3.602891400000000e+00  3.21230300e-02  -1.24413959e+00  -2.31529310e-01
C     4.898768302100000e+00   5.733404591006091e+00   3.508953000000000e+00  1.51589942e+00  -1.09872782e+00   3.98235670e-01
C     6.180173754200000e+00   4.996058559745053e+00   3.526062900000000e+00 -2.43288709e+00   1.30345229e+00  -2.96047280e-01
C     7.365942333500000e+00   5.755913764191791e+00   3.469912800000000e+00  2.99128390e-01  -1.15233588e+00  -9.28003700e-02
C     8.564604785499998e+00   5.038932845975029e+00   3.501060600000000e+00  3.17178353e+00  -8.33784340e-01   1.77774000e-02
C     9.872092303999999e+00   5.751887706140576e+00   3.533609100000000e+00 -1.73273808e+00  -1.01369052e+00  -1.40306070e-01
C     1.111712712480000e+01   5.043351356947904e+00   3.596121300000000e+00 -2.67083344e+00  -1.02224756e+00   3.51152260e-01
C     1.230316345240000e+01   5.750105785433610e+00   3.643036500000000e+00  2.03513829e+00  -1.89270540e+00  -4.36026200e-01
C     4.919464491399999e+00   7.137760568034095e+00   3.488716800000000e+00  6.29208260e-01   9.02133060e-01   7.47577100e-02
C     6.161462481500000e+00   7.859157606300801e+00   3.540316800000000e+00 -8.56536370e-01   2.52357200e-01  -5.18802090e-01
C     7.372111686199999e+00   7.159952431590358e+00   3.420597600000000e+00 -1.47585160e-01   3.91286510e-01   5.97110080e-01
C     8.587371771999999e+00   7.859158204031534e+00   3.409277700000000e+00  1.33235564e+00   7.93176420e-01   5.29837640e-01
C     9.823653624299999e+00   7.164286235579272e+00   3.486041400000000e+00  1.25391365e+00  -1.75985060e-01  -2.12073760e-01
C     1.108184015680000e+01   7.866360859371414e+00   3.502313700000000e+00 -1.78605390e-01   2.24073630e-01   3.95115100e-01
C     1.233728329220000e+01   7.112900092922624e+00   3.569393700000000e+00 -6.95853510e-01   3.80783081e+00  -7.06553070e-01
C     1.357770501340000e+01   7.856700506035181e+00   3.452395800000000e+00 -1.36181471e+00   8.71840000e-04   1.00831339e+00
