26
Lattice="8.88768389401873 1.33226762955019e-15 0 4.44384194700937 7.69696003302603 0 0 0 30 " PBC="1 1 1" Properties=species:S:1:pos:R:3:force:R:3 Energy="-207.74525593"
C     1.249759891096886e-01   1.774243959523369e-01   3.569497800000000e+00  6.26580300e-02   1.79220240e+00   1.14388130e+00
C     6.936727206910630e+00   7.282259292054045e+00   3.610607700000000e+00 -1.04625104e+00  -2.59481740e-01   6.89279680e-01
C     8.282274687845502e+00   7.538753172941766e+00   3.670021500000000e+00 -1.30077510e-01   6.58809640e+00  -3.91380920e-01
C     9.324805473516625e+00   6.689823200970540e+00   3.676046700000000e+00  2.37867913e+00  -4.49304529e+00   5.36679400e-02
C     1.070799927264621e+01   7.082875084288116e+00   3.646919100000000e+00  1.10718993e+00  -1.46012762e+00  -3.65361520e-01
C     1.181093617944202e+01   6.112446289155332e+00   3.587889900000000e+00 -3.96821967e+00  -1.58405276e+00   7.51925350e-01
C     4.270389821534249e+00   6.478267251521970e+00   3.618066300000000e+00  8.06858400e-02   1.56745210e-01  -5.13193290e-01
C     5.288887554412433e+00   5.473478534088863e+00   3.616331100000000e+00  2.56795010e-01   5.93212510e-01  -4.50337400e-01
C     6.640719294546964e+00   5.904132530180198e+00   3.616742700000000e+00 -1.51118213e+00  -7.90625180e-01   2.17754200e-01
C     7.614236281495316e+00   4.885699719580312e+00   3.661101900000000e+00  1.76640250e+00  -9.82861160e-01  -3.27566720e-01
C     9.034246111269397e+00   5.228714050590860e+00   3.692965500000000e+00 -1.59347573e+00   1.99432359e+00  -4.80124990e-01
C     1.005387573514701e+01   4.251042416069844e+00   3.625995900000000e+00 -1.39853490e+00   1.46738115e+00   9.69898110e-01
C     1.137829572511739e+01   4.676682458458437e+00   3.634647600000000e+00  3.28437537e+00   2.53658847e+00  -8.48235070e-01
C     3.599707506960243e+00   3.794082827562379e+00   3.552857400000000e+00 -1.56724428e+00  -2.16827807e+00   6.19153570e-01
C     4.953323405112720e+00   4.094579613184808e+00   3.543031200000000e+00 -4.07714310e-01   1.57770809e+00   6.42164530e-01
C     5.896063631454430e+00   3.061157511713698e+00   3.610190100000000e+00  7.53489490e-01  -9.85778800e-02  -7.75161610e-01
C     7.245818230971167e+00   3.467395673015469e+00   3.596400900000000e+00  8.39796830e-01   2.02914942e+00   6.02023880e-01
C     8.299518657758538e+00   2.540068853445880e+00   3.620916300000000e+00  2.66414700e-02  -6.05018650e-01   4.27832430e-01
C     9.666024275022643e+00   2.906450539350706e+00   3.708776700000000e+00  1.32823135e+00   3.07089870e-01  -1.42160847e+00
C     1.877567794803462e+00   2.010836580557522e+00   3.598534800000000e+00 -7.50166630e-01  -7.00420750e-01   1.31500185e+00
C     3.284829441911841e+00   2.411083120293540e+00   3.632500800000000e+00 -3.06157728e+00  -1.46991774e+00  -6.67426800e-01
C     4.170644763922986e+00   1.331748344365079e+00   3.623616900000000e+00  1.77744678e+00  -1.66105981e+00   9.15085900e-02
C     5.546021711721914e+00   1.672238842181789e+00   3.581564700000000e+00 -3.81451000e-02   1.19156265e+00   4.39206530e-01
C     6.601057201936103e+00   7.314890631070829e-01   3.604427700000000e+00 -2.98880080e-01   1.05674817e+00   8.91243600e-02
C     7.942672238384235e+00   1.183839788918184e+00   3.621294000000000e+00  1.43595263e+00  -2.37021445e+00  -5.42957420e-01
C     1.487726115616499e+00   6.522193032717177e-01   3.666755700000000e+00  6.73124310e-01  -2.64712682e+00  -1.26906809e+00
