32
Lattice="9.86 0 0 4.93 8.53901048131456 0 0 0 30 " PBC="1 1 1" Properties=species:S:1:pos:R:3:force:R:3 Energy="-255.91250986"
C     4.933056254899999e+00   8.404488702090282e+00  -2.904477000000014e-01  2.05027350e-01  -5.49883470e-01   3.56981150e-01
C     1.238123700300000e+00   5.651287061972552e-01  -2.939397000000028e-01  8.21489710e-01  -1.87469621e+00  -7.71916000e-02
C     7.405244392099999e+00   8.361748563714947e+00  -2.710839000000007e-01  1.08110874e+00   2.43259415e+00   1.45881250e-01
C     3.711059077600000e+00   6.159919198521089e-01  -1.377176999999996e-01  1.04827890e-01  -3.01579204e+00  -3.43653350e-01
C     9.909144014799999e+00   8.424295022288746e+00  -1.111940999999987e-01 -2.07497605e+00  -8.00994770e-01  -5.56752000e-02
C     6.156843958900000e+00   6.025611664384312e-01  -1.719378000000020e-01  1.65453733e+00  -6.51980630e-01   1.34772170e-01
C     1.231819295180000e+01   8.441575930137750e+00  -1.135845000000018e-01  1.58475020e+00   6.94292310e-01  -2.84570390e-01
C     8.655245694900000e+00   5.926080958229432e-01  -2.392839000000002e-01 -1.33665824e+00   2.23938940e-01  -3.53703500e-02
C     1.270397797400000e+00   1.942861756350715e+00  -1.773413999999995e-01 -5.07136540e-01   2.19397528e+00   1.36721071e+00
C     2.465020952500000e+00   2.668174272482919e+00   8.307330000000000e-02  1.38856810e+00   1.72540546e+00  -8.33784600e-01
C     3.719253772900000e+00   2.005494629710572e+00  -2.129820000000038e-02  3.79843140e-01  -8.27971700e-02  -1.17526260e-01
C     5.002484606800000e+00   2.678325362751438e+00  -8.994180000000185e-02 -2.19789248e+00   6.36691480e-01   2.91151630e-01
C     6.216529891299999e+00   1.995126904746175e+00  -2.583401999999992e-01 -1.59824960e+00   4.08017520e-01   5.22102380e-01
C     7.399260900400000e+00   2.730912175671680e+00  -2.761856999999992e-01  1.69839945e+00  -1.61824460e+00   2.61595600e-02
C     8.634504642600000e+00   2.021989692425102e+00  -2.455116000000004e-01  8.84043320e-01  -1.30940521e+00   5.42262000e-03
C     9.892221198200000e+00   2.668927498597360e+00  -1.002021000000006e-01 -1.28504999e+00  -2.87907260e-01  -4.90886380e-01
C     2.500075076600000e+00   4.151096660256146e+00   1.929099000000000e-01 -1.78749720e-01  -2.44505913e+00   1.41230970e-01
C     3.718927949199999e+00   4.875960109827206e+00   1.517193000000000e-01  8.36108160e-01  -1.01406393e+00  -3.01121140e-01
C     4.961293125699999e+00   4.080889343040109e+00  -2.895600000002219e-03 -9.65206700e-02   2.47167898e+00  -6.06397920e-01
C     6.186975576600000e+00   4.806039788753403e+00  -2.248820999999985e-01 -4.49935450e-01   1.16810436e+00   4.80330850e-01
C     7.425211631600000e+00   4.104613019686379e+00  -2.744852999999985e-01 -1.13353764e+00   1.66572146e+00   1.15398050e-01
C     8.645751007900000e+00   4.804927241077964e+00  -1.693847999999996e-01  1.19885700e-02   1.09713314e+00  -2.19431000e-02
C     9.794072046699998e+00   4.053991118467690e+00   4.542780000000000e-02  4.51495430e+00   1.54157771e+00   4.31575500e-02
C     1.111925658900000e+01   4.778134985625601e+00   2.232843000000000e-01 -2.57395178e+00   1.27864868e+00  -7.24079120e-01
C     3.734360328200000e+00   6.325270134477694e+00   7.260780000000000e-02 -1.98848520e-01  -1.51357453e+00  -1.51142990e-01
C     4.944017616900000e+00   6.960335215088455e+00  -1.754162999999984e-01  1.55331951e+00   1.51036313e+00  -1.53231400e-01
C     6.189676230600000e+00   6.260436331166617e+00  -2.576931000000009e-01  4.02082330e-01  -9.28592930e-01  -1.93874100e-01
C     7.460356270499999e+00   6.969109902257703e+00  -3.370131000000001e-01 -9.12149680e-01  -1.21294132e+00   3.71084240e-01
C     8.705869449199998e+00   6.249779475307368e+00  -2.423552999999998e-01 -1.17634641e+00  -2.27849960e-01   6.51744040e-01
C     9.920521419499998e+00   6.960051890720729e+00  -4.659450000000120e-02 -6.83299610e-01   2.59898930e-01  -1.87831060e-01
C     1.108892742620000e+01   6.196800380245675e+00   1.677294000000000e-01  2.60252709e+00   2.82592672e+00  -5.14308810e-01
C     1.240729225020000e+01   7.087840829647178e+00   8.360370000000000e-02 -3.32027278e+00  -4.60018509e+00   4.39960610e-01
