32
Lattice="9.86 0 0 4.93 8.53901048131456 0 0 0 30 " PBC="1 1 1" Properties=species:S:1:pos:R:3:force:R:3 Energy="-256.55556951"
C     1.247377408900000e+00   8.073589152084456e-01   3.703664400000000e+00 -3.83968930e+00  -1.37435036e+00  -1.57512130e-01
C     2.386044472400000e+00   1.523515733523784e+00   3.702782700000000e+00  3.69025460e+00   2.60238880e-01  -5.66932630e-01
C     3.649372896299999e+00   8.366434516496056e-01   3.629891700000000e+00 -1.04518770e-01  -3.07979757e+00   2.11421780e-01
C     4.916585568599999e+00   1.422125914007198e+00   3.670329000000000e+00  3.59857650e-01   2.74969889e+00  -3.51019260e-01
C     6.164221654600000e+00   7.258413370512304e-01   3.688925100000000e+00  2.69250770e-01   1.73926883e+00   1.13298890e-01
C     7.396335043999999e+00   1.505084450182914e+00   3.666329100000000e+00 -9.86437900e-01   2.70027460e-01  -5.96046530e-01
C     8.623910072599999e+00   8.212070554543857e-01   3.573160500000000e+00  6.37328500e-01  -1.45438380e+00   1.04922684e+00
C     9.872657775000000e+00   1.525695059778490e+00   3.664089300000000e+00 -1.03988223e+00   2.41596850e-01  -5.74281470e-01
C     2.382066208900000e+00   2.921463012406338e+00   3.649175100000000e+00  2.44750399e+00   5.28052180e-01   8.22436400e-02
C     3.683221783300000e+00   3.571364025995365e+00   3.632892900000000e+00 -6.57742950e-01   2.03422189e+00   3.39581640e-01
C     4.925379801200000e+00   2.896442089287947e+00   3.633737400000000e+00 -3.68936650e-01  -1.45964765e+00   8.73062100e-02
C     6.144114649599999e+00   3.628759924227838e+00   3.622644900000000e+00 -2.03236040e-01  -9.15704650e-01   4.71150460e-01
C     7.377801349899999e+00   2.949088419111234e+00   3.634797600000000e+00  6.21724440e-01  -1.41686055e+00  -3.98196600e-02
C     8.632661562099999e+00   3.654327344016949e+00   3.619513200000000e+00 -1.43272282e+00  -1.38910256e+00   4.06559510e-01
C     9.835898807600000e+00   2.965410652253650e+00   3.634116300000000e+00  8.30076850e-01  -2.00786497e+00  -4.78101800e-02
C     1.106009501140000e+01   3.651018050505426e+00   3.624168900000000e+00 -3.07468700e-01   1.70122587e+00   6.47170690e-01
C     3.719129438300000e+00   5.043030204763752e+00   3.691829100000000e+00 -1.94646524e+00  -6.89423610e-01  -3.29653100e-02
C     4.916246680400000e+00   5.757296315378608e+00   3.681946500000000e+00  9.62802830e-01  -1.04550380e+00  -2.45802570e-01
C     6.161974955000000e+00   5.019530420972267e+00   3.677973300000000e+00 -1.62690965e+00   6.70937760e-01  -2.59489700e-01
C     7.372758847299999e+00   5.677808972353118e+00   3.671806500000000e+00  5.85635060e-01   3.54004683e+00   6.73511800e-02
C     8.620859487199999e+00   5.025124668298135e+00   3.698418300000000e+00 -6.45691000e-02   2.24965141e+00  -5.93343040e-01
C     9.815153219699999e+00   5.816638083319264e+00   3.703504800000000e+00  1.25945523e+00  -2.03768496e+00   7.24594700e-02
C     1.106745081790000e+01   5.088805619804306e+00   3.710085000000000e+00  2.28224970e-01   2.11566680e-01  -4.34689900e-02
C     1.232789514250000e+01   5.810221187723752e+00   3.763445700000000e+00 -3.26675040e-01  -4.24601328e+00  -6.57238120e-01
C     4.891145634700000e+00   7.154334189645042e+00   3.622015500000000e+00  1.65848490e-01   2.49783324e+00   5.91898820e-01
C     6.103247168100000e+00   7.927702805126905e+00   3.684991800000000e+00  1.94527246e+00  -2.10398360e+00  -5.13065010e-01
C     7.357768541400000e+00   7.162067373706045e+00   3.641941200000000e+00 -1.26722640e-01  -6.57590800e-02   2.64487600e-02
C     8.602070221900000e+00   7.886010915678095e+00   3.576744600000000e+00 -1.28249603e+00   1.80105493e+00   1.01810325e+00
C     9.840366767999999e+00   7.217974324681120e+00   3.687795900000000e+00 -4.06018430e-01  -4.82482730e-01  -4.35587000e-02
C     1.109895346860000e+01   7.869635399110284e+00   3.752535300000000e+00 -1.62027238e+00   7.39285160e-01  -6.06132130e-01
C     1.228220414900000e+01   7.161945265856181e+00   3.717681900000000e+00  2.72567680e+00   2.47520990e+00   6.44328600e-02
C     1.353419110790000e+01   7.901625179461614e+00   3.621111600000000e+00 -3.88148770e-01   5.86464000e-02   7.98314100e-02
