32
Lattice="9.86 0 0 4.93 8.53901048131456 0 0 0 30 " PBC="1 1 1" Properties=species:S:1:pos:R:3:force:R:3 Energy="-255.41455486"
C     9.809166572799999e+00   9.119789569995105e-01   3.610554600000000e+00 -1.78609714e+00  -1.10507727e+00   8.35566710e-01
C     1.167589007100000e+00   1.584692534816591e+00   3.729207300000000e+00  2.45892351e+00  -2.24940028e+00  -4.93874820e-01
C     2.436864835100000e+00   8.855783005677608e-01   3.629494800000000e+00 -4.59761810e-01  -1.65300826e+00  -1.64736070e-01
C     3.646652916700000e+00   1.572021838725738e+00   3.870695100000000e+00 -8.50082350e-01   7.89151560e-01  -2.95125600e-02
C     4.871828760800001e+00   8.417992207873248e-01   3.871610100000000e+00 -1.55455120e+00   6.50575200e-01  -8.15338120e-01
C     6.024178299799999e+00   1.620276384678952e+00   3.779578500000000e+00  2.86276136e+00  -2.86296529e+00  -2.19743990e-01
C     7.288902949000000e+00   7.873956479973584e-01   3.700253400000000e+00  9.79924030e-01   3.84380442e+00   4.74332260e-01
C     8.546542448700000e+00   1.593835594897947e+00   3.708873600000000e+00 -5.76842740e-01  -2.00984261e+00  -2.00901130e-01
C     1.108089068810000e+01   2.918162684855818e+00   4.001506200000000e+00 -1.22720951e+00   3.24180566e+00   6.07372430e-01
C     2.377292144800000e+00   3.727040860808866e+00   4.155169800000000e+00  1.53691216e+00   3.40515200e-01  -5.40684740e-01
C     3.618554776100000e+00   3.037227914505585e+00   4.032152099999999e+00 -6.44643300e-02  -1.35662688e+00  -4.05015240e-01
C     4.828274873000000e+00   3.732104494023505e+00   3.875692799999999e+00  6.58531200e-01   1.46678547e+00   1.37642990e-01
C     6.036562410499999e+00   3.024810656245778e+00   3.702489600000000e+00  2.10209187e+00  -6.33082500e-02   9.55659860e-01
C     7.350750341299999e+00   3.704433915953171e+00   3.751579200000000e+00 -2.02961242e+00   8.97690050e-01  -6.65672120e-01
C     8.565549077700000e+00   3.000186028603764e+00   3.830442900000000e+00  7.35569990e-01  -1.01218827e+00   4.50111900e-02
C     9.856621668199999e+00   3.600492896275475e+00   4.022910900000000e+00 -2.68217050e+00   4.05345504e+00  -1.00306916e+00
C     1.226578936890000e+01   5.186187910922419e+00   4.172890500000000e+00 -2.09148578e+00  -1.03527609e+00  -2.59669080e-01
C     3.635926666400000e+00   5.867279624262055e+00   4.044549600000000e+00  7.94405240e-01  -2.82646930e-01  -5.48759850e-01
C     4.860318788400000e+00   5.187886917837624e+00   3.871932000000000e+00  2.11857580e-01  -2.10119977e+00   1.13032500e-02
C     6.090967326900000e+00   5.844095954638542e+00   3.628680600000000e+00  5.52096500e-01   1.58242034e+00  -1.83893700e-01
C     7.341751760199999e+00   5.131721405625214e+00   3.628411500000000e+00 -1.00362972e+00  -1.04436358e+00   6.38787140e-01
C     8.573789671300000e+00   5.818622037014186e+00   3.716646900000000e+00 -8.23439660e-01  -9.20401230e-01  -5.48846150e-01
C     9.764997470299999e+00   5.122288446138064e+00   3.934715100000000e+00  2.38644403e+00  -1.92744644e+00   1.10614139e+00
C     1.097277909120000e+01   5.903369239715147e+00   4.076181300000000e+00  9.99738390e-01  -3.58690148e+00  -4.38317240e-01
C     1.356002356840000e+01   7.247735850247692e+00   3.849018600000000e+00 -2.05837695e+00   2.01028064e+00   1.70912380e-01
C     4.884946307600000e+00   8.015014955795849e+00   3.680914500000000e+00  8.07179700e-01  -3.37245260e-01  -1.02417246e+00
C     6.126255773900000e+00   7.317053573351923e+00   3.493108800000000e+00 -7.84630450e-01  -2.09186438e+00   5.54999200e-01
C     7.385587643999999e+00   7.944747609336138e+00   3.376994100000000e+00 -1.40436984e+00   2.45418766e+00   1.60696642e+00
C     8.547568677499999e+00   7.197107459381039e+00   3.572473500000000e+00  2.31806380e+00   2.52238879e+00   5.61749410e-01
C     9.790170444699999e+00   7.954014399679348e+00   3.791417100000000e+00 -1.97468247e+00   6.06084290e-01  -4.96907770e-01
C     1.096474052900000e+01   7.258661514156852e+00   3.897063300000000e+00  3.37169548e+00   9.40693370e-01   1.57713620e-01
C     1.228689933310000e+01   7.935431463512352e+00   3.819140100000000e+00 -1.40478794e+00   2.39924560e-01   1.74955930e-01
