32
Lattice="9.86 0 0 4.93 8.53901048131456 0 0 0 30 " PBC="1 1 1" Properties=species:S:1:pos:R:3:force:R:3 Energy="-254.80296162"
C     1.095975284800000e+00   7.697847927834064e-01   3.613849500000000e+00  1.56718180e-01   2.94928964e+00   8.01422090e-01
C     2.344410770300000e+00   1.482190423794881e+00   3.853872300000000e+00  4.11643540e-01   1.94128721e+00  -4.26203110e-01
C     3.620809412999999e+00   8.158780297940272e-01   3.638607600000000e+00 -2.77874019e+00  -1.20155470e-01  -1.67261970e-01
C     4.823293354500000e+00   1.544296867158646e+00   3.690685200000000e+00  6.50924600e-02   1.26045633e+00  -2.15393570e-01
C     6.048738425900000e+00   8.591449397258728e-01   3.531287400000000e+00  8.54628330e-01   2.84281540e-01  -5.06295080e-01
C     7.311616839399999e+00   1.585033155944638e+00   3.433500300000000e+00 -3.00762473e+00  -6.52463100e-02   7.36297620e-01
C     8.446672135600000e+00   8.161195130104015e-01   3.531672600000000e+00  3.72982709e+00   2.85642400e-01  -3.98011500e-01
C     9.708762192799998e+00   1.520995700750926e+00   3.617589600000000e+00  1.20511839e+00   1.08839149e+00   1.01685010e+00
C     2.353264606600000e+00   3.001550647868573e+00   4.131063600000000e+00 -3.50320580e-01  -3.61630654e+00  -9.80777790e-01
C     3.558987015800000e+00   3.670795935798992e+00   4.039806600000000e+00  2.48509107e+00   2.52468310e-01   4.65263820e-01
C     4.807975055700000e+00   3.011938781068017e+00   3.797031600000000e+00 -1.07841385e+00  -2.67458366e+00  -3.42777870e-01
C     5.986490569699999e+00   3.704269454611326e+00   3.522814800000000e+00  2.40256001e+00  -1.04242392e+00   4.77519050e-01
C     7.298436484399999e+00   3.020789721600851e+00   3.442743900000000e+00 -1.51240460e+00  -2.01151787e+00   2.33644490e-01
C     8.517972901499999e+00   3.670933157697406e+00   3.592354200000000e+00  1.19161736e+00   5.10401190e-01   7.68828790e-01
C     9.772565956999999e+00   2.975133169586178e+00   3.844104300000000e+00 -6.74041300e-01  -7.01049940e-01  -9.90174260e-01
C     1.102511636560000e+01   3.744134251987730e+00   4.095586500000000e+00 -2.79479339e+00  -3.17913106e+00  -7.32253800e-01
C     3.633994155700000e+00   5.080050913919582e+00   4.103888100000000e+00 -1.63424917e+00   1.97225711e+00  -1.67151893e+00
C     4.753823442700000e+00   5.805708491465283e+00   3.646970100000000e+00  3.02478627e+00  -1.46633290e+00   2.30917860e-01
C     6.007969544400000e+00   5.075564432423285e+00   3.494927700000000e+00  7.29826980e-01   2.61414495e+00  -4.92877210e-01
C     7.317224418600000e+00   5.788572149063704e+00   3.340488000000000e+00 -3.12358031e+00   5.24271210e-01   8.62231470e-01
C     8.489590842199998e+00   5.088710409837454e+00   3.596576400000000e+00  2.08244059e+00   4.47363570e-01  -5.49522620e-01
C     9.742567843700000e+00   5.804275645506738e+00   3.728385300000000e+00 -3.22765690e-01   9.05885860e-01   2.32609790e-01
C     1.097323945460000e+01   5.110744472480047e+00   3.999515700000000e+00  1.20164988e+00   2.66596799e+00   3.96260860e-01
C     1.227814902680000e+01   5.851024080791490e+00   4.066344900000000e+00 -2.77725242e+00  -1.78432090e+00  -1.03508202e+00
C     4.826866026899999e+00   7.193394014503497e+00   3.450810300000000e+00 -1.28740652e+00   1.50864885e+00   1.33335978e+00
C     6.026756246100000e+00   7.946730111399279e+00   3.453671100000000e+00  1.40104428e+00  -2.56835759e+00  -1.12991344e+00
C     7.284762389899999e+00   7.235319360498830e+00   3.317641500000000e+00 -1.76791914e+00  -1.27326339e+00   2.63306790e-01
C     8.474917042300000e+00   7.909647750587783e+00   3.340143300000000e+00  2.08774133e+00   2.63612187e+00   2.12901869e+00
C     9.693553241400000e+00   7.261259935045917e+00   3.621377700000000e+00  2.17707877e+00  -1.58798598e+00  -1.35308552e+00
C     1.096720636710000e+01   7.985939539721343e+00   3.543908700000000e+00  5.23856100e-02  -2.16608720e+00   1.01670741e+00
C     1.221446673780000e+01   7.183603782817863e+00   3.664144200000000e+00  7.19091600e-01   2.95049127e+00   5.89749340e-01
C     1.348648384300000e+01   7.930664219351474e+00   3.578622600000000e+00 -2.86882984e+00  -5.40608050e-01  -5.62839290e-01
