32
Lattice="9.86 0 0 4.93 8.53901048131456 0 0 0 30 " PBC="1 1 1" Properties=species:S:1:pos:R:3:force:R:3 Energy="-256.18217838"
C     9.597946688099999e+00   1.815280486159140e+00   3.715529700000000e+00  1.45138806e+00   3.32677863e+00   8.90305760e-01
C     1.087532442880000e+01   2.575311594221766e+00   3.890985000000000e+00 -4.97085770e-01  -2.25486080e+00  -2.68405320e-01
C     2.258002857500000e+00   1.811564650358663e+00   3.983251500000000e+00 -6.27994000e-02   3.78472169e+00  -2.95916860e-01
C     3.488864322700000e+00   2.617953277806266e+00   3.909210000000000e+00 -1.26425650e-01  -1.98764442e+00  -7.90052650e-01
C     4.747856072099999e+00   1.945085741630231e+00   3.696128100000000e+00 -1.63755544e+00  -1.28122762e+00   1.18443004e+00
C     5.991977314600000e+00   2.607001740695352e+00   3.619815000000000e+00 -1.46827172e+00  -3.55552060e-01   2.68177440e-01
C     7.152828046999999e+00   1.874415610046179e+00   3.662613000000000e+00  2.57755553e+00  -1.23043968e+00  -2.61485740e-01
C     8.379330554099999e+00   2.590387473394521e+00   3.622646100000000e+00  1.65162780e+00  -7.34602900e-02   8.01582650e-01
C     1.091690005550000e+01   3.985660248804634e+00   3.840885300000001e+00 -1.47215048e+00   3.71852420e-01  -2.76126970e-01
C     1.208914347560000e+01   4.713677923456903e+00   3.755359800000000e+00  1.73784504e+00   2.52803040e-01   3.82820170e-01
C     3.454499018200000e+00   4.007432419995805e+00   3.811035900000000e+00  1.47111163e+00   7.81218580e-01  -5.48058790e-01
C     4.727605554800000e+00   4.696197885883503e+00   3.653957400000000e+00  5.63145520e-01  -2.86376430e-01   6.44336170e-01
C     6.023832805400000e+00   3.996556623907848e+00   3.616559700000000e+00 -2.07212793e+00   1.91748215e+00  -3.34827310e-01
C     7.221830742700000e+00   4.758596961136418e+00   3.574301400000000e+00  7.43121910e-01  -2.62105499e+00   9.05491290e-01
C     8.475077316600000e+00   4.038865371473733e+00   3.696165000000000e+00 -8.39839420e-01  -4.85462260e-01  -8.63780780e-01
C     9.721233219400000e+00   4.747890664406490e+00   3.766272300000000e+00 -2.27134950e+00  -4.92966950e-01  -2.74206490e-01
C     1.210605786190000e+01   6.134739791368188e+00   3.659504700000000e+00  6.05271000e-02  -8.59968510e-01   5.44963660e-01
C     1.334190853640000e+01   6.787262195784471e+00   3.787848600000000e+00  6.15995660e-01   2.02727938e+00  -4.16817220e-01
C     4.717493336000000e+00   6.110525633959947e+00   3.746862300000000e+00  1.61821348e+00   7.58746600e-02  -4.24578390e-01
C     5.999171367800000e+00   6.854929925893649e+00   3.734185200000000e+00 -2.77539543e+00   1.85401710e-01   1.26915736e+00
C     7.202348023599999e+00   6.124057916208232e+00   3.659584500000000e+00  4.50618040e-01   3.07692338e+00  -6.95858490e-01
C     8.420468939099999e+00   6.886994166416364e+00   3.554659200000000e+00  3.82514840e-01  -1.95407860e-01   1.56094243e+00
C     9.651798655699999e+00   6.187469547323865e+00   3.682068000000000e+00  6.15793940e-01  -1.37062876e+00  -1.01262510e+00
C     1.089752061990000e+01   6.842581748228627e+00   3.592647300000000e+00 -7.32335680e-01   2.05867721e+00   5.95039440e-01
C     1.338521207880000e+01   8.234630620232016e+00   3.805263900000000e+00 -2.26274951e+00  -6.23696340e-01  -3.73078950e-01
C     9.633122632499999e+00   4.299520715738248e-01   3.815896200000000e+00  7.26288180e-01  -3.99223670e-01   7.31462350e-01
C     5.928859066900000e+00   8.292636203812760e+00   3.987162900000000e+00  1.93695271e+00  -1.96494366e+00  -1.97157960e+00
C     2.262505722300000e+00   4.348951339604872e-01   3.938636100000000e+00 -7.67575020e-01  -4.76223480e-01  -3.24138720e-01
C     8.424397754699999e+00   8.322508565735363e+00   3.687700800000000e+00 -6.55254330e-01  -1.40084523e+00   4.98380990e-01
C     4.695299708499999e+00   5.051131249396232e-01   3.714390000000000e+00  2.40833145e+00  -2.81446250e-01  -1.02467805e+00
C     1.088973501600000e+01   8.285841627783720e+00   3.615669600000000e+00 -1.39426820e-01   6.09545800e-02   6.05950440e-01
C     7.220678996099999e+00   4.206030505596920e-01   3.734368200000000e+00 -1.23068881e+00   7.21461840e-01  -7.26824770e-01
