32
Lattice="9.86 0 0 4.93 8.53901048131456 0 0 0 30 " PBC="1 1 1" Properties=species:S:1:pos:R:3:force:R:3 Energy="-251.18744534"
C     1.229517744400000e+00   6.456880365984048e-01   3.533617500000000e+00  1.11608115e+00   3.98994514e+00  -1.18642850e-01
C     2.489241500200000e+00   1.454205097798253e+00   3.577485600000000e+00 -2.53104603e+00  -1.46584371e+00   1.25063820e-01
C     3.749561490200000e+00   7.652972012157472e-01   3.516499800000000e+00 -8.08190437e+00  -3.81672969e+00  -7.33282320e-01
C     4.840444775200000e+00   1.438400072520611e+00   3.494521200000000e+00  7.60655842e+00  -1.10356590e-01  -2.16689300e-01
C     6.086482308700000e+00   6.673661078940857e-01   3.435243000000000e+00  3.70408597e+00   1.31201789e+00  -8.56912530e-01
C     7.416785029100000e+00   1.365885173112460e+00   3.471259200000000e+00 -2.76908245e+00   1.81617667e+00  -3.41581550e-01
C     8.663279031300000e+00   8.038983958213208e-01   3.559822500000000e+00 -1.03647732e+00  -2.46647239e+00  -1.46194592e+00
C     9.867331698799999e+00   1.480757150885813e+00   3.566727000000000e+00  1.48256926e+00  -1.84613640e+00   3.61951430e-01
C     2.398673554800000e+00   2.860774130172358e+00   3.680872200000000e+00  4.10705150e+00   7.96840900e-02   2.60752660e-01
C     3.796165470400000e+00   3.495053365648645e+00   3.717531600000000e+00 -7.67710136e+00   5.74160607e+00   3.19420530e-01
C     4.901378293400000e+00   2.838508318785339e+00   3.537270300000000e+00  3.52997239e+00  -1.56254013e+00  -4.88007050e-01
C     6.133696228500000e+00   3.502606205808310e+00   3.366293400000000e+00  2.54989576e+00   8.26969420e-01  -3.07714110e-01
C     7.440442028500000e+00   2.754319225809351e+00   3.310182300000000e+00 -2.49907917e+00   4.36736728e+00   2.36777236e+00
C     8.582982938099999e+00   3.648322711847414e+00   3.599385000000000e+00  4.97070400e-01  -2.03716563e+00  -2.60222839e+00
C     9.831352805299998e+00   2.857452540485744e+00   3.615130200000000e+00  8.56399380e-01   4.24662772e+00   5.17192290e-01
C     1.108093067040000e+01   3.615271532493420e+00   3.673768200000000e+00 -8.85199070e-01  -2.92891800e-02  -8.93967220e-01
C     3.753976502400000e+00   5.052454966800842e+00   3.733868100000000e+00 -1.03982573e+00  -5.54153902e+00  -4.15261500e-01
C     4.897473831999999e+00   5.716157753808902e+00   3.547146900000000e+00  2.51105592e+00   1.26751243e+00  -1.07230534e+00
C     6.180917346099999e+00   4.948236258502337e+00   3.338944200000000e+00 -5.54267510e+00  -1.64214614e+00   1.56114993e+00
C     7.283887462799999e+00   5.678255647991326e+00   3.443035200000000e+00  3.69316034e+00   3.80626134e+00  -2.27677953e+00
C     8.520200817799999e+00   5.118805639933585e+00   3.398284200000000e+00  5.68788713e+00  -3.71051730e+00   2.12933871e+00
C     9.931449306799999e+00   5.850792673607481e+00   3.488551800000000e+00 -3.56850367e+00  -3.05430820e+00  -1.37031649e+00
C     1.116063309300000e+01   5.052154564412155e+00   3.485105100000000e+00 -3.67614593e+00  -9.58661940e-01   1.70460809e+00
C     1.237398768450000e+01   5.701497724446524e+00   3.617926200000000e+00  1.11597826e+00  -1.71567740e+00  -1.47024470e-01
C     4.846322321200000e+00   7.180698982232776e+00   3.444814200000000e+00  4.08497504e+00  -1.72537011e+00  -3.43840170e-01
C     6.164387105400000e+00   7.789150272710207e+00   3.425880600000000e+00 -3.00495185e+00   2.11372212e+00  -3.33254480e-01
C     7.339343652399999e+00   7.125351165663931e+00   3.253492200000000e+00  8.44341860e-01  -1.25404038e+00   1.89634789e+00
C     8.548939611900000e+00   7.840720004092176e+00   3.333956100000000e+00  1.78225789e+00   2.17916267e+00   3.32371700e-01
C     9.822899975199999e+00   7.251135230319782e+00   3.347944800000000e+00  1.59783594e+00  -3.85080874e+00  -1.60548150e-01
C     1.112762679230000e+01   7.802746853707405e+00   3.271141800000000e+00 -7.58894880e-01   1.18199154e+00   1.90663049e+00
C     1.240494276010000e+01   7.015487829877728e+00   3.464135100000000e+00 -2.01465408e+00   8.75662057e+00  -1.92781681e+00
C     1.358836170140000e+01   7.965126640967497e+00   3.324129300000000e+00 -1.68163560e+00  -4.89806203e+00   2.58551828e+00
