32
Lattice="9.86 0 0 4.93 8.53901048131456 0 0 0 30 " PBC="1 1 1" Properties=species:S:1:pos:R:3:force:R:3 Energy="-256.13948916"
C     9.871417534899999e+00   2.357134923831688e-01   4.109461800000000e+00 -3.96704988e+00  -3.49731520e-01  -7.02026150e-01
C     1.146650508300000e+00   9.693618759360536e-01   4.063730700000000e+00  2.17737846e+00   4.30757770e-01   2.58799990e-01
C     2.362910200900000e+00   2.589349898231096e-01   4.141503000000000e+00  2.29481264e+00   6.06522830e-01  -3.99515940e-01
C     3.661142038800000e+00   9.320825201527839e-01   4.128003900000000e+00 -5.94091520e-01  -1.96024260e-01   1.44684390e-01
C     4.906212404900000e+00   2.166916510775016e-01   4.205208900000000e+00 -1.05709766e+00   1.35019729e+00  -9.96813180e-01
C     6.100622041699999e+00   9.647788182312280e-01   4.119802500000000e+00  1.78207516e+00   4.80500890e-01   8.79531970e-01
C     7.381566390899999e+00   2.674336961736440e-01   4.145682000000000e+00 -1.41990936e+00  -1.45946107e+00  -8.41902780e-01
C     8.620438021500000e+00   9.209344150206199e-01   4.114483800000000e+00 -2.06648980e-01   2.61473459e+00  -7.86644590e-01
C     1.098421531080000e+01   2.376469976041762e+00   4.021026900000000e+00  3.20963312e+00   9.49220510e-01  -8.60991000e-02
C     2.407064907800000e+00   3.076002451023902e+00   4.085300100000000e+00  2.12689640e-01  -9.74378550e-01  -3.24752760e-01
C     3.681676129700000e+00   2.336330222527902e+00   4.057773900000000e+00 -1.41238357e+00   1.54763625e+00   2.57682800e-01
C     4.893126853800000e+00   3.102375697232011e+00   4.057406700000000e+00 -2.40242420e-01  -1.35395884e+00   4.61318400e-01
C     6.110717399900000e+00   2.402189560997626e+00   4.158982500000000e+00  1.66106005e+00  -5.35033050e-01  -3.30477390e-01
C     7.426201131899999e+00   3.103204408199095e+00   4.181286900000000e+00 -2.60082407e+00  -1.29706310e+00  -1.31135781e+00
C     8.611259594000000e+00   2.413088156243564e+00   3.972679200000000e+00  2.37743640e-01  -2.45986457e+00   1.31932933e+00
C     9.830206629600001e+00   3.128026372373302e+00   3.924326400000000e+00 -1.42490941e+00   5.60733950e-01   8.05061390e-01
C     1.228900138650000e+01   4.490408501826447e+00   4.138451700000000e+00 -3.37197030e-01   9.58770450e-01  -3.65836930e-01
C     3.682976269299999e+00   5.208907826886763e+00   4.153139100000000e+00 -1.50324332e+00   5.74711880e-01  -3.54617220e-01
C     4.895422212500000e+00   4.504283369175190e+00   4.084718700000000e+00  1.53288810e-01   3.42100300e-02   1.16201754e+00
C     6.126008238599999e+00   5.161818172743232e+00   4.270918800000000e+00  1.91591080e-01   2.50832393e+00  -1.79521157e+00
C     7.399348703699999e+00   4.492549573314202e+00   4.130242800000000e+00 -2.07147092e+00   1.67481810e+00   1.21697636e+00
C     8.537650996499998e+00   5.287239414843786e+00   4.132817400000000e+00  2.86149768e+00  -5.31568700e-01  -5.67312870e-01
C     9.810006398300001e+00   4.559291503907140e+00   4.053642600000000e+00 -2.07217810e-01   2.95960080e-01  -1.26860120e-01
C     1.104665316920000e+01   5.249439350201446e+00   4.116986100000000e+00  2.29057560e-01  -1.50650000e-02   3.46819640e-01
C     1.348353254780000e+01   6.641664552771248e+00   4.141836000000000e+00  3.50961050e-01  -1.19305930e-01  -9.42089340e-01
C     4.855208794099999e+00   7.378163001852043e+00   4.057668600000000e+00  9.32522760e-01  -2.04437088e+00   1.40824949e+00
C     6.072053184700000e+00   6.634996524877520e+00   4.188254700000000e+00  1.79617488e+00  -5.36242990e-01  -2.80505120e-01
C     7.343449405699999e+00   7.397550995927092e+00   4.143364800000001e+00 -1.95319858e+00  -8.95106600e-01   4.63978110e-01
C     8.579725194100000e+00   6.722841936750940e+00   4.141273800000000e+00 -7.95561170e-01  -2.19111641e+00   2.97070750e-01
C     9.829146531699999e+00   7.352487563580358e+00   4.169423100000000e+00 -1.51355886e+00   1.78078679e+00   3.19765040e-01
C     1.102632825820000e+01   6.709951190360018e+00   4.186854900000000e+00  1.00430103e+00  -4.17249023e+00  -9.44969660e-01
C     1.223935692740000e+01   7.334034847323184e+00   4.043405700000000e+00  2.20981700e+00   2.76289638e+00   1.81570733e+00
