32
Lattice="10.06 0 0 5.03 8.71221556207145 0 0 0 30 " PBC="1 1 1" Properties=species:S:1:pos:R:3:force:R:3 Energy="-257.24564109"
C    -9.656119613027130e-04   3.985152850915758e-04   2.999687106292161e+00  6.14565700e-02  -4.53482300e-02   9.79313000e-03
C     1.257783648192612e+00   7.264693822455432e-01   3.000458894769995e+00 -2.33838500e-02  -4.28221900e-02  -1.46968600e-02
C     2.516144350139909e+00   3.451156925701460e-04   3.000032553173483e+00 -6.78100300e-02  -9.49495000e-03   4.28712000e-03
C     3.771459233467051e+00   7.257349466665857e-01   2.999472965787463e+00  7.17289000e-02   1.61402400e-02   4.94665000e-03
C     5.029083033690581e+00  -1.232084454406565e-03   2.999780772181644e+00  2.82439800e-02   2.71035700e-02   8.25851000e-03
C     6.287481366111656e+00   7.248142784096381e-01   3.000149667824881e+00 -4.85971300e-02   4.17179400e-02  -1.26188100e-02
C     7.543937705968024e+00  -2.322191057367529e-04   2.999532473992586e+00  5.86830800e-02  -2.22678400e-02   1.21842600e-02
C     8.803180435320769e+00   7.262720282519448e-01   2.999792155796646e+00 -5.80352300e-02   1.24689000e-03  -6.42219000e-03
C     1.257085234906743e+00   2.176859377286012e+00   2.998967651280368e+00  2.46669300e-02   8.24776900e-02   9.01192000e-03
C     2.515890522154660e+00   2.904049498763580e+00   2.999370255285731e+00 -3.38600300e-02   1.16895300e-02  -5.01932000e-03
C     3.773157101413505e+00   2.178155076459285e+00   2.999712322785975e+00 -3.66612100e-02  -1.94379300e-02   5.87620000e-04
C     5.030362346332899e+00   2.903246101091289e+00   3.000526101880861e+00 -1.61061100e-02   4.37693800e-02  -8.29557000e-03
C     6.286343643599574e+00   2.178305202534822e+00   2.999253915655920e+00  6.59880500e-02  -5.79556700e-02   1.87773000e-02
C     7.544368583515562e+00   2.903818112831211e+00   3.000537858745523e+00  1.89948400e-02   2.70948400e-02  -1.65691800e-02
C     8.803235491851209e+00   2.179046992718593e+00   2.999297182125616e+00 -6.91366300e-02  -4.65433000e-02   7.40901000e-03
C     1.005877512802429e+01   2.904727818412539e+00   2.999201895335531e+00  7.95218300e-02  -5.07619300e-02   8.13835000e-03
C     2.515738290250201e+00   4.357241423655665e+00   2.998752267770541e+00 -1.98205200e-02  -5.78315400e-02   2.28183100e-02
C     3.773501681150742e+00   5.083097538336268e+00   3.001224654697835e+00 -5.18496000e-03  -7.52801500e-02  -1.76440100e-02
C     5.030902561312858e+00   4.355580152303535e+00   3.000987528097920e+00 -2.92732200e-02   1.41018300e-02   3.00852000e-03
C     6.287467220967641e+00   5.082104112729207e+00   3.001021553577333e+00  4.10319700e-02  -2.42745200e-02  -1.53286500e-02
C     7.545686790973194e+00   4.356514530295785e+00   2.999750367763320e+00 -1.68904800e-02  -3.51151000e-02   5.83537000e-03
C     8.803351704903635e+00   5.081887343320391e+00   2.998910197758259e+00 -3.14521500e-02  -8.43140000e-04   1.82316800e-02
C     1.006033798295730e+01   4.355277661261474e+00   3.000954583606668e+00 -2.05528300e-02   3.27703600e-02  -2.50401700e-02
C     1.131681417412410e+01   5.081074295057570e+00   3.000142114547893e+00  5.78107100e-02   3.15328100e-02  -9.37200000e-03
C     3.773383145884992e+00   6.533023226030101e+00   3.000490331901680e+00 -3.60873700e-02   6.10555600e-02   8.45954000e-03
C     5.030029596625258e+00   7.259049949164457e+00   3.000521091586950e+00  2.73077500e-02   4.14097000e-02  -1.00620400e-02
C     6.288541862676200e+00   6.532918560975534e+00   2.999330449268348e+00 -2.84264100e-02   7.80491300e-02   2.25667300e-02
C     7.546238836597646e+00   7.260839378648696e+00   3.000654739607354e+00 -3.87687900e-02  -4.78419000e-02  -1.65243600e-02
C     8.802439119325081e+00   6.533827388274456e+00   2.999694702521809e+00  2.60256600e-02   4.02275000e-03   7.18196000e-03
C     1.005993972992355e+01   7.259521033140633e+00   3.000904569826661e+00 -4.89710000e-04   2.74751000e-03  -2.07399700e-02
C     1.131769217280566e+01   6.533537699843688e+00   2.999106699295776e+00 -3.06994800e-02  -1.58635000e-02   2.56115500e-02
C     1.257417673650992e+01   7.258924432644821e+00   3.000807566511812e+00  4.97758700e-02   3.47521700e-02  -1.87744000e-02
