32
Lattice="9.74 0 0 4.87 8.43508743286043 0 0 0 30 " PBC="1 1 1" Properties=species:S:1:pos:R:3:force:R:3 Energy="-257.73236526"
C    -2.778444769983285e-03   1.108489446544415e-03   2.997599845923371e+00  2.41363810e-01  -3.71307000e-03   1.80151700e-02
C     1.214442098386562e+00   7.070628495958998e-01   2.998243875768243e+00  1.18050220e-01  -3.62719600e-01   2.96759500e-02
C     2.434850682154303e+00   1.597720942094277e-03   2.999550927540135e+00 -1.36462880e-01  -4.84949200e-02  -6.11290000e-03
C     3.652360036637006e+00   6.994931673216275e-01   2.997436400614705e+00 -6.80324200e-02   3.16500260e-01   4.39514200e-02
C     4.866504665858177e+00  -2.340160868422392e-04   2.998109949663618e+00  2.12200680e-01  -2.66359500e-02   4.33082500e-02
C     6.086078600820696e+00   7.001134177879830e-01   3.003591383359382e+00  4.59437500e-02   2.24767180e-01  -2.40083600e-02
C     7.305668499293753e+00  -2.319882829230362e-03   3.003652105931951e+00 -2.72069800e-02   2.22509200e-01  -1.25427500e-02
C     8.526603289965209e+00   7.018980319372446e-01   2.999731151880149e+00 -3.72048170e-01   1.53934230e-01   3.25479000e-03
C     1.216075981594388e+00   2.105341819970077e+00   3.003079669897194e+00 -5.29766100e-02   2.84566210e-01  -6.92952100e-02
C     2.431404960547775e+00   2.807955509746290e+00   2.999249953215794e+00  2.57790830e-01   7.99693700e-02   3.80474900e-02
C     3.653981842816004e+00   2.109743499649726e+00   3.003607106085557e+00 -2.28745460e-01  -2.12864640e-01  -5.96873000e-02
C     4.868813258164054e+00   2.809858212829380e+00   3.002093253669295e+00  1.06778650e-01   1.68530550e-01  -1.58383800e-02
C     6.086578758485191e+00   2.111342524913497e+00   3.002250894622242e+00  6.05687200e-02  -3.64113510e-01   1.74522200e-02
C     7.306673560729640e+00   2.808930339408162e+00   3.003049840990060e+00 -2.05078750e-01   1.95320310e-01  -4.59976700e-02
C     8.520837101982952e+00   2.111129088558314e+00   2.998187452473224e+00  2.69197290e-01  -1.91519370e-01   2.99976100e-02
C     9.741186997703636e+00   2.814826222311076e+00   2.998798000340310e+00 -1.63901550e-01  -2.28003630e-01   8.56771000e-03
C     2.435805729793074e+00   4.214747187077010e+00   2.997409028228395e+00 -1.33888310e-01   6.57668100e-02   6.29773700e-02
C     3.648501870138505e+00   4.921515477695847e+00   3.002754843513120e+00  4.13137420e-01  -1.20458760e-01  -8.15088000e-02
C     4.873376665060324e+00   4.215663344668942e+00   2.997509349230561e+00 -2.62623250e-01   2.00557650e-01   6.83646300e-02
C     6.090466097306128e+00   4.921919575413010e+00   3.001465198936280e+00 -2.01455280e-01  -6.84882900e-02  -5.01077700e-02
C     7.304182919878588e+00   4.216215399476387e+00   2.999506701903353e+00  1.56276570e-01   4.51143300e-02   5.78211900e-02
C     8.522770159680691e+00   4.918866103628120e+00   3.003586937541745e+00 -6.61362200e-02   1.59801920e-01  -8.72173500e-02
C     9.737238231451773e+00   4.216093020525102e+00   2.998621024612221e+00  2.97626310e-01   2.02168740e-01   5.09487600e-02
C     1.096047372109350e+01   4.922067305964610e+00   3.002400037426939e+00 -2.45899920e-01  -1.81624070e-01  -7.66664400e-02
C     3.653913477476196e+00   6.328127101166233e+00   2.999133759284973e+00 -2.14971570e-01  -4.23277200e-02   4.32724700e-02
C     4.869641298978445e+00   7.031344320931038e+00   3.000197897032319e+00 -1.33448400e-02  -6.32547700e-02  -2.87024400e-02
C     6.085013934796498e+00   6.328086139237476e+00   2.998957792530844e+00  2.27176260e-01  -1.15088700e-02   4.63858500e-02
C     7.306443546785485e+00   7.029796199859455e+00   3.002755737200266e+00 -1.08090110e-01   3.89644600e-02  -7.04480100e-02
C     8.526215955050695e+00   6.329783808288069e+00   2.996795380197509e+00 -2.70123900e-01  -2.73233430e-01   9.82646800e-02
C     9.738149990569896e+00   7.030854946787537e+00   3.002209552465566e+00  1.49048150e-01  -6.57158100e-02  -8.25395800e-02
C     1.095536872815840e+01   6.325260315544348e+00   2.997600235186253e+00  1.07281030e-01   1.28627990e-01   8.17416500e-02
C     1.217284819764791e+01   7.031540055884095e+00   3.002050700474916e+00  1.08546550e-01  -2.22422790e-01  -3.13742600e-02
