32
Lattice="9.86 0 0 4.93 8.53901048131456 0 0 0 30 " PBC="1 1 1" Properties=species:S:1:pos:R:3:force:R:3 Energy="-254.00447312"
C     1.153080411500000e+00   9.518862786481048e-01   3.954850800000000e+00  2.58952123e+00  -3.19511126e+00   2.65749980e-01
C     2.466193503700000e+00   1.648808207346300e+00   4.069812600000001e+00 -1.36010248e+00   8.64119400e-01  -7.79144340e-01
C     3.739183840200000e+00   9.405171839247184e-01   3.932079000000000e+00 -5.55408200e+00  -2.14594302e+00   6.98831490e-01
C     4.924024297699999e+00   1.576912130027634e+00   3.858212700000000e+00 -1.50822070e-01   2.98666951e+00   7.65070900e-02
C     6.122504931300000e+00   9.398920429674776e-01   3.794250300000000e+00  2.34177989e+00  -3.66713660e+00   8.88311250e-01
C     7.363067206799999e+00   1.641398139441861e+00   3.882109199999999e+00 -2.87023488e+00   9.01510590e-01   7.68709150e-01
C     8.540925699700001e+00   8.876157084682889e-01   3.915122400000000e+00 -4.24393530e-01   4.03719800e-02   2.29102350e-01
C     9.737357080199999e+00   1.559969281603533e+00   4.034334300000000e+00  3.50642245e+00   1.31109397e+00  -6.39235470e-01
C     2.457780310800000e+00   3.108952955444336e+00   4.103880900000000e+00 -2.26498305e+00  -2.71711491e+00  -5.85671900e-01
C     3.707133466499999e+00   3.730411976756265e+00   4.003842300000001e+00 -3.04291294e+00   1.31595964e+00  -2.12290150e-01
C     4.843822515400000e+00   2.987891134364136e+00   3.916796400000000e+00  3.54118460e+00   2.82497891e+00   3.10864230e-01
C     6.051179811200000e+00   3.872819872404683e+00   3.974421900000000e+00  9.90206970e-01  -3.53957383e+00  -9.63578500e-02
C     7.275217811299999e+00   3.138180365905385e+00   4.061872200000000e+00 -2.20920250e-01  -4.29112494e+00  -1.72106500e+00
C     8.520325990500000e+00   3.648408101952213e+00   3.921505800000000e+00  2.51346922e+00   5.00365341e+00   1.93535190e-01
C     9.800719658700000e+00   2.953092019564887e+00   4.002949200000000e+00 -1.21880872e+00   2.91486848e+00   1.35635100e-02
C     1.101021341930000e+01   3.779819203734173e+00   4.025819700000000e+00  1.44748824e+00  -2.49712991e+00   6.16895020e-01
C     3.614004386100000e+00   5.148335843706255e+00   3.915091800000000e+00  3.49160856e+00   1.07044638e+00   6.06034910e-01
C     4.844782485000000e+00   5.944990938497812e+00   3.946836000000000e+00  9.46301400e-01  -2.82504986e+00  -2.16232680e-01
C     6.149944621100000e+00   5.259058801677480e+00   3.947422200000000e+00 -2.62412575e+00   8.19666420e-01  -2.25452820e-01
C     7.394065567799999e+00   5.973337550027848e+00   3.870805800000000e+00 -5.75151410e-01  -4.26071242e+00   2.98752120e-01
C     8.554144262199999e+00   5.152422187171459e+00   3.786701700000000e+00  1.63467405e+00  -1.15659335e+00   1.20060070e+00
C     9.832154719100000e+00   5.821439056571538e+00   3.850100100000001e+00 -2.76518189e+00   2.21828765e+00   2.54275340e-01
C     1.105360446920000e+01   5.181176280281601e+00   4.031671200000000e+00 -1.06682507e+00  -9.05757310e-01  -1.48994962e+00
C     1.228082803810000e+01   5.857012061890590e+00   3.911715600000000e+00 -1.91799500e-01  -6.23665780e-01   1.20094653e+00
C     4.889590762000000e+00   7.316812858646491e+00   3.937121700000001e+00  1.46923040e-01   1.42522789e+00  -9.54381080e-01
C     6.150015120099999e+00   7.984048832020862e+00   3.813522300000000e+00 -1.79830126e+00   3.48592153e+00   2.08527672e+00
C     7.383240471000000e+00   7.338552496207733e+00   3.972829800000000e+00 -3.81391045e+00   1.14491870e-01  -1.22166700e+00
C     8.492387680500000e+00   8.051314033176014e+00   3.954415200000000e+00  6.64407749e+00   1.15837029e+00  -7.62910490e-01
C     9.717392404300000e+00   7.271223679424504e+00   3.855647100000000e+00  2.88924378e+00   9.66988230e-01   5.77684410e-01
C     1.101281557190000e+01   7.990375384885493e+00   3.898694700000000e+00  4.63391730e-01   1.13096270e-01  -3.67325840e-01
C     1.230479178210000e+01   7.235978230547467e+00   3.989265300000000e+00 -1.50475427e+00   3.78011262e+00  -1.28882433e+00
C     1.352541486980000e+01   8.026812794235436e+00   3.918804900000000e+00 -1.69898315e+00  -1.49092183e+00   2.74868580e-01
