2
Lattice="2.535 0 0 1.2675 2.19537439859355 0 0 0 30 " PBC="1 1 1" Properties=species:S:1:pos:R:3:force:R:3 Energy="-16.02904257"
C     0.000000000000000e+00   0.000000000000000e+00   3.000000000000000e+00  0.00000000e+00  -0.00000000e+00   0.00000000e+00
C     1.267500000000000e+00   7.317914661978506e-01   3.000000000000000e+00 -0.00000000e+00   0.00000000e+00  -0.00000000e+00
