32
Lattice="9.86 0 0 4.93 8.53901048131456 0 0 0 30 " PBC="1 1 1" Properties=species:S:1:pos:R:3:force:R:3 Energy="-254.665202"
C     9.713729365000001e-01   1.255565597996310e+00   3.686758500000000e+00  2.91419871e+00  -3.53915331e+00  -5.00384490e-01
C     2.200542327100000e+00   1.897850668138225e+00   3.538300500000000e+00  1.74297412e+00   1.16328682e+00  -8.12648980e-01
C     3.456738125600000e+00   1.173850256356378e+00   3.355148400000000e+00 -7.38852670e-01   2.75088485e+00   1.09194929e+00
C     4.673070437100000e+00   1.956502227861781e+00   3.371422800000000e+00 -3.41205070e-01  -2.00036995e+00  -1.48818207e+00
C     5.877634690700001e+00   1.237713601126402e+00   3.344686500000000e+00  3.33184744e+00  -2.37092424e+00   1.53732063e+00
C     7.183113086300000e+00   1.838461850249825e+00   3.497643900000000e+00  1.03796350e-01   3.48234077e+00  -1.24104018e+00
C     8.487772658199999e+00   1.233196891533006e+00   3.568615800000000e+00 -4.24658559e+00  -1.34174049e+00   4.89859200e-02
C     9.683678993699999e+00   1.975465320775347e+00   3.639569700000000e+00 -2.59107968e+00  -6.30765500e-02  -1.16577920e-01
C     2.252076898900000e+00   3.333838470198236e+00   3.420738900000000e+00 -1.14544223e+00   4.68136610e-01  -7.29523600e-02
C     3.459204949700000e+00   4.088698268124070e+00   3.183168600000000e+00  1.12593200e-02  -3.81266357e+00   7.74066680e-01
C     4.689976688900000e+00   3.315139915829342e+00   3.163782000000000e+00  9.65974110e-01   3.31476763e+00   9.46655250e-01
C     5.969701898399999e+00   4.036572817940063e+00   3.247364400000000e+00 -1.30329471e+00  -1.16464900e-02   4.53081970e-01
C     7.182578132000000e+00   3.289749936678005e+00   3.369744300000000e+00  1.74426500e-02   2.02888345e+00  -1.22023170e-01
C     8.390170391600000e+00   4.140195417916958e+00   3.344547000000000e+00  6.59783310e-01  -3.46248351e+00   1.08358449e+00
C     9.641990470000000e+00   3.381482647682339e+00   3.534434100000000e+00 -1.15206601e+00   1.22159394e+00  -4.86201160e-01
C     1.085455877580000e+01   4.071723825361192e+00   3.500001600000000e+00  1.51503506e+00   1.55683580e-01  -2.53126510e-01
C     3.425055135500000e+00   5.436539914361556e+00   3.280050900000000e+00  3.17467910e+00   2.92883765e+00   7.31499950e-01
C     4.746654384599999e+00   6.224009424799566e+00   3.421575900000000e+00 -4.17684742e+00  -2.15451693e+00  -5.01456270e-01
C     5.944082956199999e+00   5.523529290434356e+00   3.404773800000000e+00 -1.10806214e+00  -2.95195650e+00  -8.47933470e-01
C     7.076648602400001e+00   6.259666966322370e+00   3.421655700000000e+00  5.13740602e+00  -1.80197617e+00  -5.36027030e-01
C     8.395344081500001e+00   5.537420638073324e+00   3.315040800000000e+00 -2.13058272e+00   8.26317700e-01   3.42086500e-01
C     9.597817916500000e+00   6.259403196288642e+00   3.340935300000000e+00  2.46082481e+00  -1.92687195e+00   7.27091910e-01
C     1.087223361460000e+01   5.500084070919839e+00   3.438243000000000e+00 -2.60887970e+00  -4.20075410e-01  -4.34721670e-01
C     1.209252451890000e+01   6.138024065579005e+00   3.426123600000000e+00  8.72576020e-01   1.82529689e+00  -5.90254660e-01
C     4.678519418200000e+00   7.595915710371789e+00   3.562561200000000e+00  6.79865470e-01   1.19609572e+00   3.31123300e-02
C     5.964087713000000e+00   8.256419613273831e+00   3.618123900000000e+00 -4.82009516e+00   5.36048754e+00   4.27297110e-01
C     7.131470153100000e+00   7.639343153700659e+00   3.481766100000000e+00  3.41605413e+00  -3.07677710e-01  -1.83846470e-01
C     8.419025385799999e+00   8.357599202352400e+00   3.386554800000000e+00 -3.74564600e-01  -1.96244364e+00   3.40460580e-01
C     9.686895720099999e+00   7.655380440063356e+00   3.397823400000000e+00 -2.91093161e+00  -6.04620230e-01  -4.77122320e-01
C     1.088780738600000e+01   8.313786051920149e+00   3.418298700000000e+00  7.86130570e-01   1.21229518e+00  -4.94809860e-01
C     1.215902159140000e+01   7.567415055092693e+00   3.412434300000000e+00 -4.27895789e+00   1.38748974e+00   5.75218290e-01
C     1.325510824490000e+01   8.349723587596591e+00   3.538970400000000e+00  6.13760002e+00  -5.90201410e-01   4.68976900e-02
