32
Lattice="10.04 0 0 5.02 8.69489505399576 0 0 0 30 " PBC="1 1 1" Properties=species:S:1:pos:R:3:force:R:3 Energy="-257.29588771"
C    -8.348262406451172e-04   3.069429529235954e-03   2.985934830546931e+00  5.64174000e-03  -8.73518000e-02   2.17664970e-01
C     1.262231404877611e+00   7.266682966400362e-01   2.990088815374421e+00 -2.71692690e-01  -1.29952070e-01   6.43550800e-02
C     2.513760593404038e+00   5.380655199506038e-03   2.987674985355526e+00  2.16137070e-01   1.72964500e-02   1.56372470e-01
C     3.775215013276197e+00   7.393892875189194e-01   3.010550361062472e+00 -2.00775800e-01  -7.14613330e-01  -2.35268100e-01
C     5.024865731119199e+00  -1.960721213112694e-04   2.993771632041577e+00 -5.87746000e-03   1.62484490e-01   2.82408370e-01
C     6.281561925723246e+00   7.342043492173426e-01   3.010713972942768e+00 -5.54148690e-01  -3.18774980e-01  -1.81846100e-01
C     7.520177564297742e+00  -4.415943640844225e-03   2.993247775530759e+00  4.48400830e-01   7.66912970e-01   2.51865090e-01
C     8.780384415900887e+00   7.341729946883246e-01   3.001307868151156e+00  2.51969500e-01  -6.79427270e-01  -1.70813120e-01
C     1.267319489046169e+00   2.171202407698260e+00   3.012275584500042e+00 -7.42407710e-01   1.75915140e-01  -2.37792360e-01
C     2.508091395738548e+00   2.896475538333041e+00   3.000077299217304e+00  3.84562040e-01  -1.38620000e-02   1.14776250e-01
C     3.767939157298805e+00   2.171873669205102e+00   3.004740361221766e+00  7.21734000e-02   5.13240490e-01   2.19644900e-02
C     5.025140594792075e+00   2.907511977031062e+00   3.005823164776518e+00 -5.40210860e-01  -5.27871150e-01  -5.81944800e-02
C     6.265141434288040e+00   2.184755965830107e+00   3.009467386883638e+00  7.58538620e-01  -1.75538500e-01   1.51114300e-02
C     7.529071189484091e+00   2.906271514312163e+00   3.009787387103291e+00  1.55293810e-01  -6.63185660e-01  -1.54220200e-01
C     8.795936212498978e+00   2.172018594883850e+00   2.995569754179189e+00 -7.43507710e-01   3.64574200e-01   1.32634430e-01
C     1.003504243584662e+01   2.898901205442090e+00   3.000942112443560e+00  7.70208630e-01   7.30014300e-02   4.58266000e-03
C     2.506249730226631e+00   4.341874230124644e+00   3.004676660933787e+00  5.47745760e-01   1.99308640e-01  -1.47522900e-02
C     3.771880398537248e+00   5.078593849820733e+00   2.999779869684071e+00 -5.22446670e-01  -2.34449060e-01   6.28839100e-02
C     5.019988061733752e+00   4.337504635661265e+00   2.992309644768809e+00  3.03321790e-01   9.17737670e-01   6.12228400e-02
C     6.287789555161120e+00   5.064121667588959e+00   2.990090776008106e+00 -6.20909860e-01   1.45430080e-01   1.23624850e-01
C     7.535063559647742e+00   4.336557283567331e+00   2.995444452709250e+00  3.13622000e-02   5.77712040e-01   1.07121810e-01
C     8.781688355043368e+00   5.071886973827665e+00   3.008876010604231e+00  5.23539150e-01   5.83982500e-02  -2.47383340e-01
C     1.004842556491974e+01   4.356367186226266e+00   2.995888601522156e+00 -6.66281630e-01  -5.73508400e-01   2.02336630e-01
C     1.129813084260271e+01   5.060827577451694e+00   3.011125429549613e+00  1.33666540e-01   5.99243120e-01  -1.28602100e-01
C     3.757229573926180e+00   6.534248097195132e+00   3.012830933119905e+00  2.00244650e-01  -6.04250130e-01  -5.07843600e-02
C     5.013159069423722e+00   7.237632618087432e+00   3.010547223501125e+00  2.15569920e-01   5.96752480e-01  -1.30230450e-01
C     6.268979089764041e+00   6.516097815680270e+00   3.007069191333073e+00  5.37362180e-01   1.02046960e-01  -1.50577890e-01
C     7.536133710584683e+00   7.255988789159768e+00   2.993897625519497e+00 -2.71503660e-01  -4.06750430e-01  -2.07951100e-02
C     8.795752188378671e+00   6.522801757804902e+00   2.990172308138004e+00 -8.46067940e-01  -1.78588400e-01   2.08435710e-01
C     1.003339163612559e+01   7.238061962525749e+00   3.009039249893589e+00  8.24302360e-01   3.66321690e-01  -2.45934360e-01
C     1.129999367807586e+01   6.515107574169710e+00   3.003962660016614e+00 -3.34924440e-01   1.12999050e-01   1.43143460e-01
C     1.254386664059338e+01   7.255198808646808e+00   3.012836117028064e+00 -5.92850900e-02  -4.41251970e-01  -1.43310190e-01
