26
Lattice="8.88768389401873 1.33226762955019e-15 0 4.44384194700937 7.69696003302603 0 0 0 30 " PBC="1 1 1" Properties=species:S:1:pos:R:3:force:R:3 Energy="-208.90887754"
C     1.231746212681244e+01   6.602517968803055e+00  -3.005123999999988e-01  3.58244930e-01   4.82735810e-01   2.40319280e-01
C     8.574112541718101e+00   6.379502323444220e+00  -1.796423999999988e-01  1.61900488e+00  -1.04152128e+00   4.49939250e-01
C     9.976376776968703e+00   5.976665371810106e+00  -1.161981000000019e-01 -1.91550329e+00   7.86309060e-01  -8.53265200e-01
C     1.026940175864262e+01   4.608252712281322e+00  -1.335357000000030e-01  1.14996338e+00  -3.36295230e-01  -4.58005200e-01
C     6.196999143290922e+00   5.815029519058506e+00  -2.099048999999980e-01 -5.99737320e-01  -1.09432176e+00  -3.14766680e-01
C     7.559035232693353e+00   5.395962757505135e+00  -2.095575000000025e-01 -2.95942950e-01   3.35982170e-01   1.27860910e-01
C     7.897292703926809e+00   4.015836941172298e+00  -2.148749999999993e-01  2.27447000e-03   3.09857800e-02   2.49343410e-01
C     9.266578699291683e+00   3.629519436063370e+00  -1.582713000000027e-01 -5.94223730e-01  -9.32576700e-01  -1.08095010e-01
C     9.614316129656922e+00   2.229924159334647e+00  -1.780638000000003e-01 -1.04187440e+00   8.97854290e-01   2.54100500e-01
C     3.765945991395598e+00   5.259853487845029e+00  -2.811525000000010e-01  7.96002500e-01  -3.32572449e+00   1.59155820e-01
C     5.158036850387564e+00   4.830679848076263e+00  -2.326236000000002e-01 -5.57551850e-01  -4.04573400e-01  -7.36632300e-02
C     5.482223118260816e+00   3.399046821888270e+00  -1.995518999999994e-01  7.15442960e-01   2.44097996e+00  -3.21928050e-01
C     6.876847900413003e+00   3.038781987088886e+00  -2.195993999999999e-01 -9.71799060e-01  -1.10340604e+00   1.57664720e-01
C     7.187331359471953e+00   1.630552260598510e+00  -2.097884999999984e-01  1.00576117e+00   1.50761718e+00   8.47575000e-03
C     8.563320534917482e+00   1.265752376949450e+00  -2.020932000000002e-01  6.67516770e-01  -1.28995629e+00  -3.80092400e-01
C     2.744482259310408e+00   4.203032858791520e+00  -2.382129000000006e-01  4.55334480e-01   2.09575061e+00   8.20321360e-01
C     3.073348737135120e+00   2.853612986923964e+00  -1.165194000000014e-01  1.94524046e+00  -3.54536180e-01  -9.06321300e-01
C     4.456904575555702e+00   2.458092611555167e+00  -1.855496999999993e-01  4.22256000e-03  -1.71865738e+00   8.04572770e-01
C     4.854658024700191e+00   1.041291319466581e+00  -1.187781000000001e-01 -3.21497577e+00   1.59634592e+00  -5.64370810e-01
C     6.155998832135788e+00   6.717014636516523e-01  -1.854519000000003e-01  2.35167979e+00  -1.27124184e+00  -1.27272910e-01
C     1.095752833012753e+01   6.975683139521520e+00  -2.310720000000011e-01  5.23760400e-02   5.52977320e-01   4.28371530e-01
C     2.090150305944507e+00   1.864610272694785e+00  -1.294274999999985e-01 -4.66794630e-01  -1.63380907e+00  -4.22722400e-02
C     2.436822103014420e+00   4.697641742437729e-01  -1.559082000000025e-01  4.46294940e-01  -1.44766620e-01  -1.31684920e-01
C     3.843132456337369e+00   3.833240034140600e-02  -1.571010000000008e-01 -2.34136943e+00   1.74905916e+00   2.26684610e-01
C     4.486108930427298e+00   7.551184225207817e+00  -2.657930999999998e-01 -1.55101684e+00   1.97131784e+00   2.12188780e-01
C     5.824277411407552e+00   7.184306547198659e+00  -2.228126999999986e-01  1.98142995e+00   2.03471180e-01   1.42739280e-01
