32
Lattice="9.86 0 0 4.93 8.53901048131456 0 0 0 30 " PBC="1 1 1" Properties=species:S:1:pos:R:3:force:R:3 Energy="-257.05790545"
C     1.199986551400000e+00   4.768605279149712e-01   3.254853900000000e+00  1.22127403e+00  -3.72655340e-01   8.94333270e-01
C     2.455552345200000e+00   1.185464506070645e+00   3.422045400000000e+00 -6.74225100e-02  -2.95213650e-01  -5.08618260e-01
C     3.704050688200000e+00   4.543716775742144e-01   3.431086800000000e+00 -1.30531946e+00  -3.38726010e-01  -1.12367770e-01
C     4.929485455900000e+00   1.137291593057620e+00   3.441477300000000e+00  4.06583060e-01   1.41904632e+00  -2.05819850e-01
C     6.196387143800000e+00   4.745249377684816e-01   3.379022400000000e+00 -1.80542623e+00  -9.56138360e-01   7.17890150e-01
C     7.388749598100000e+00   1.184041309193943e+00   3.276658800000000e+00  9.64566560e-01  -5.88249160e-01   4.43624770e-01
C     8.614298840400000e+00   4.248140635779040e-01   3.309040500000000e+00  2.34138630e-01   2.69475563e+00  -3.71632540e-01
C     9.831332888099999e+00   1.187722476611871e+00   3.240142500000000e+00  9.52524480e-01  -4.32636110e-01   7.02948550e-01
C     2.473480635300000e+00   2.607065868664057e+00   3.522233700000000e+00 -1.02460350e-01   9.91691600e-02   2.31610640e-01
C     3.722473457300000e+00   3.297477314211881e+00   3.511948200000000e+00 -1.28114454e+00   4.32126580e-01   6.69933490e-01
C     4.917274979800000e+00   2.586420505295827e+00   3.461286300000000e+00  7.13654010e-01  -1.27153767e+00  -1.26578720e-01
C     6.143779212400000e+00   3.275318496626176e+00   3.429239700000000e+00  1.07007502e+00   1.99280911e+00  -7.63984060e-01
C     7.377755500900000e+00   2.599668523885233e+00   3.295565400000000e+00  1.34641880e+00  -9.94924800e-02   4.05708910e-01
C     8.655338477499999e+00   3.302587228863322e+00   3.366955200000000e+00 -1.29530704e+00   5.68732170e-01  -2.42876310e-01
C     9.894928409100000e+00   2.613027976561403e+00   3.392846700000000e+00 -8.94940340e-01  -1.23709410e-01   1.79365900e-01
C     1.110715639700000e+01   3.348372292985720e+00   3.620672400000000e+00 -7.83240700e-02  -1.30963081e+00  -1.18415652e+00
C     3.711310014600000e+00   4.719978859290094e+00   3.598408500000000e+00 -4.17651010e-01   3.92698400e-02  -5.13728170e-01
C     4.909092757400000e+00   5.446000711022872e+00   3.441057900000000e+00  1.64971674e+00  -7.41371510e-01  -6.47254600e-02
C     6.188691463100000e+00   4.739868178670425e+00   3.374611200000000e+00 -2.09880031e+00  -9.28480470e-01   2.96851250e-01
C     7.385506594799999e+00   5.462094867195366e+00   3.327134700000000e+00  1.16978465e+00  -9.63428360e-01   3.18874960e-01
C     8.642827468600000e+00   4.730545543198676e+00   3.399882300000000e+00 -8.26538260e-01  -1.56186450e-01   2.28113960e-01
C     9.858404356199999e+00   5.431841665405355e+00   3.560406900000000e+00 -4.04661830e-01   1.31926137e+00   4.53150200e-02
C     1.109308134560000e+01   4.766957762467700e+00   3.665629200000000e+00  2.80157370e-01  -1.13246683e+00  -5.03582100e-02
C     1.233664983650000e+01   5.436759708491310e+00   3.657840300000000e+00  1.61545210e-01   5.55586070e-01  -2.23402970e-01
C     4.919458476799999e+00   6.846939973787514e+00   3.338257500000000e+00  1.08265781e+00   1.02540460e+00   7.14538510e-01
C     6.173159448800000e+00   7.575121682831102e+00   3.305020500000000e+00 -1.85240285e+00   6.03061590e-01  -5.46728010e-01
C     7.383560033599998e+00   6.882231533321144e+00   3.331965600000000e+00 -6.59781050e-01  -1.09432361e+00  -7.10447200e-02
C     8.582086664100000e+00   7.555562140035510e+00   3.401366400000000e+00  2.14295068e+00   1.46410131e+00   5.27059350e-01
C     9.809436243799999e+00   6.862445621357726e+00   3.568168800000000e+00  2.01607449e+00   5.19381420e-01  -5.29701840e-01
C     1.110569499710000e+01   7.600447960964258e+00   3.563729400000000e+00 -8.75436220e-01  -1.38929586e+00  -6.69464010e-01
C     1.233748399250000e+01   6.853748895354161e+00   3.543957300000000e+00 -1.98933840e-01   8.56565380e-01   5.69538480e-01
C     1.358072843450000e+01   7.584293519377775e+00   3.450726300000000e+00 -1.24757163e+00  -1.39572843e+00  -7.60519760e-01
