26
Lattice="8.88768389401873 1.33226762955019e-15 0 4.44384194700937 7.69696003302603 0 0 0 30 " PBC="1 1 1" Properties=species:S:1:pos:R:3:force:R:3 Energy="-207.16628307"
C     1.315272510410538e+01   7.611463121621964e+00  -2.002956000000005e-01  3.51973858e+00  -3.12156542e+00   4.35170600e-02
C     9.458359588789818e+00   7.334287893981633e+00  -2.046923999999990e-01  9.01057330e-01   1.91398437e+00  -4.78814180e-01
C     1.084306296051573e+01   6.938571015223270e+00  -3.801002999999987e-01 -2.22110156e+00   2.49354068e+00   3.59588010e-01
C     1.110941151458283e+01   5.612403197788741e+00  -4.080560999999996e-01  3.14410301e+00  -2.71468624e+00   9.71842200e-01
C     7.124983993721356e+00   6.815639402952127e+00  -7.205580000000111e-02 -2.67519632e+00  -2.08110633e+00  -3.42252340e-01
C     8.462669384586196e+00   6.360133154437526e+00  -1.362789000000006e-01 -3.02080000e-01   1.01218093e+00  -7.43790000e-03
C     8.797659165537119e+00   5.002919417813192e+00  -2.047652999999983e-01  1.27917458e+00  -2.17976600e-02  -5.58930920e-01
C     1.016014199437294e+01   4.587953519594203e+00  -3.206492999999995e-01 -1.24285859e+00   1.72619080e+00   3.69120910e-01
C     1.048503989916902e+01   3.269851731423113e+00  -1.696388999999989e-01 -3.57770940e-01  -4.61412626e+00   8.91152160e-01
C     4.623621796540840e+00   6.166831546304905e+00  -2.627589000000015e-01  1.67258984e+00   1.42513283e+00   7.62033260e-01
C     6.061583014229625e+00   5.825220755955829e+00  -1.970960999999996e-01 -8.53709350e-01  -2.28552129e+00  -1.08517210e-01
C     6.423178565661894e+00   4.366433393569197e+00  -2.677295999999991e-01 -9.27014950e-01   1.10147682e+00   9.29018000e-01
C     7.842730768157722e+00   4.040185966348801e+00  -2.361357000000019e-01 -4.44720783e+00  -3.63816972e+00  -6.11468400e-02
C     8.101158884876741e+00   2.566496981465688e+00  -2.332356000000004e-01 -9.41004690e-01   2.57309148e+00  -1.91912490e-01
C     9.419601773608074e+00   2.210489566167698e+00  -1.094616000000030e-01  2.68742447e+00   1.35964574e+00  -2.97579600e-02
C     3.602635821942293e+00   5.170256485828612e+00  -2.524055999999995e-01  6.10215910e-01   8.78822960e-01  -1.20150747e+00
C     3.956950405040034e+00   3.806662046309008e+00  -2.210232000000012e-01  7.73351120e-01  -2.78902923e+00   1.39807621e+00
C     5.336032894325649e+00   3.288832357887493e+00  -1.760915999999995e-01  1.08828694e+00   6.85578388e+00  -1.31817620e+00
C     5.728919314540242e+00   2.000610707340066e+00  -3.028493999999995e-01 -2.08485710e+00  -1.56365992e+00   8.22079440e-01
C     7.056688716525056e+00   1.600595692161750e+00  -3.252215999999990e-01  9.93293020e-01   1.24537523e+00   1.75941550e-01
C     7.400457751630523e+00   2.556981691598201e-01  -3.332553000000011e-01 -1.30322278e+00  -3.20301780e-01  -2.06766400e-02
C     2.945441101109142e+00   2.758154980753503e+00  -1.675679999999957e-02 -1.85647180e-01   4.87850581e+00  -1.52767448e+00
C     3.326914135412380e+00   1.449159235085105e+00   5.083320000000000e-02 -1.45434578e+00  -1.97777055e+00  -6.25855780e-01
C     4.661957306780410e+00   1.065773502051604e+00  -1.596495000000004e-01  1.17271714e+00  -2.71667007e+00   1.06700900e-01
C     9.012045256763818e-01   8.541776053804790e-01  -2.504489999999748e-02 -7.94019270e-01  -6.01580090e-01  -6.49751130e-01
C     2.253535886417128e+00   4.479261283378560e-01   1.569690000000000e-02  1.94808439e+00   9.82253040e-01   2.93341850e-01
