32
Lattice="9.86 0 0 4.93 8.53901048131456 0 0 0 30 " PBC="1 1 1" Properties=species:S:1:pos:R:3:force:R:3 Energy="-256.63171205"
C     1.237724468900000e+00   2.465573525719304e-01   3.597212100000000e+00 -8.44740030e-01   1.47355966e+00   9.83245700e-02
C     2.451276852000000e+00   1.032648495938259e+00   3.521729400000000e+00  2.27937290e-01  -3.13250920e+00  -3.17028600e-01
C     3.687094002500000e+00   2.600510384928456e-01   3.475845900000000e+00  2.15681670e-01   6.03714980e-01   3.37999200e-01
C     4.933564143500000e+00   9.917706303585080e-01   3.459960300000000e+00 -1.18379159e+00  -3.49136200e-01  -6.85333920e-01
C     6.170694498100000e+00   2.640109192128408e-01   3.417890700000000e+00 -1.44592509e+00   1.25091893e+00   3.66833810e-01
C     7.372629977100000e+00   9.988112152794776e-01   3.499793100000000e+00  1.13789136e+00  -1.91083025e+00  -3.29468540e-01
C     8.603750415200000e+00   2.820235348698768e-01   3.538646100000000e+00  2.30232420e-01  -1.05765305e+00  -2.99157000e-01
C     9.834142199300000e+00   9.775779410397000e-01   3.536925000000000e+00  1.26659904e+00  -4.32112300e-02   3.54302180e-01
C     2.462009757800000e+00   2.409174898520790e+00   3.314619900000000e+00 -4.31422660e-01   1.17077239e+00  -1.77157820e-01
C     3.694191082600000e+00   3.113260203110658e+00   3.223813800000000e+00 -6.55424700e-01  -5.94405610e-01   1.83706450e-01
C     4.865851234399999e+00   2.430906680192391e+00   3.351045900000000e+00  4.14338059e+00  -1.90793202e+00   8.55746250e-01
C     6.168880652500000e+00   3.119059301297940e+00   3.455329500000000e+00 -1.60066665e+00  -6.23614300e-01  -8.50167030e-01
C     7.400331548500000e+00   2.380642563512814e+00   3.460656900000000e+00 -1.28606811e+00   1.70398373e+00   5.46396630e-01
C     8.602864395599999e+00   3.105255222346077e+00   3.450516900000000e+00  1.41996678e+00   1.98477610e-01  -4.38113020e-01
C     9.857344356899999e+00   2.406539674496558e+00   3.457217400000000e+00  5.01514710e-01   6.30096320e-01  -6.70813200e-01
C     1.111458561120000e+01   3.148474399209339e+00   3.248373600000000e+00 -1.88838631e+00  -1.45532231e+00   4.03079160e-01
C     3.743912351100000e+00   4.496656837355083e+00   3.176641200000000e+00 -2.85439404e+00   2.03349737e+00   5.24086400e-02
C     4.882765522100000e+00   5.259403094580034e+00   3.371868600000000e+00  2.85312155e+00  -4.69261820e-01   2.82753030e-01
C     6.152478739699999e+00   4.521503991610206e+00   3.440094900000000e+00 -3.57276000e-02   1.08587947e+00   1.93787610e-01
C     7.399875326300000e+00   5.239701035699530e+00   3.473476800000000e+00 -1.34708091e+00   3.73622770e-01  -1.06767400e-02
C     8.615095528399999e+00   4.532648510357967e+00   3.355791900000000e+00  4.70913570e-01  -3.58389400e-02   1.87617970e-01
C     9.855534356699998e+00   5.244101700140503e+00   3.210867900000000e+00 -4.54133570e-01   1.76051690e-01   1.21106610e-01
C     1.109076217500000e+01   4.562794803736770e+00   3.075855300000000e+00 -1.52730100e-02  -1.41808150e+00   8.40541510e-01
C     1.233736720080000e+01   5.196038769582461e+00   3.108081600000000e+00  6.31482670e-01   3.16433713e+00  -5.37342000e-03
C     4.902319627600000e+00   6.688074074730048e+00   3.524889300000000e+00  1.06034563e+00  -2.07609173e+00  -1.49717960e-01
C     6.145759346899999e+00   7.356650160409150e+00   3.676162200000000e+00 -8.26270440e-01   1.66699118e+00  -7.65285400e-01
C     7.334123719099999e+00   6.673249413245616e+00   3.566189700000000e+00  2.89657717e+00  -1.49421810e+00  -3.17387320e-01
C     8.598503613399998e+00   7.355728715788253e+00   3.465770700000000e+00 -3.53808480e-01   1.09455224e+00   8.47188100e-02
C     9.836628201100000e+00   6.657805075770649e+00   3.300254400000000e+00 -1.18083550e-01   7.02054980e-01   6.58879400e-02
C     1.105813149100000e+01   7.412388636707455e+00   3.304445100000000e+00  1.59848249e+00  -1.96226915e+00  -3.54095440e-01
C     1.233568582430000e+01   6.683065518133004e+00   3.210918300000000e+00 -7.53215810e-01  -1.50455757e+00   5.58632980e-01
C     1.357396743250000e+01   7.352866695645671e+00   3.439717800000000e+00 -2.55971440e+00   2.70642257e+00  -1.64067950e-01
