32
Lattice="9.76 0 0 4.88 8.45240794093612 0 0 0 30 " PBC="1 1 1" Properties=species:S:1:pos:R:3:force:R:3 Energy="-257.73404635"
C     9.334668149508781e-03   6.490788629474420e-03   2.986911761701025e+00 -3.54669570e-01  -1.03585910e-01   3.18330360e-01
C     1.225054432811467e+00   7.024398415602323e-01   2.998975348068844e+00  8.46839000e-03   5.39979710e-01  -2.39045000e-03
C     2.442108794039366e+00   5.773821041786170e-03   2.997435485088451e+00  3.98641670e-01  -3.73757000e-01  -3.38895000e-03
C     3.666132433349986e+00   7.149742427877044e-01   2.990628148166710e+00 -2.98258700e-01  -6.11379300e-01   1.28944650e-01
C     4.876138103851392e+00  -5.013198845610500e-03   2.994177289655677e+00  4.48644840e-01   6.52291160e-01   7.73578400e-02
C     6.105447983154106e+00   7.028831034419397e-01   3.010425120474899e+00 -5.88027600e-02   2.46907790e-01  -2.72186350e-01
C     7.327216769426471e+00  -4.025317999812207e-03   2.994702452963220e+00 -3.11902450e-01   3.77538080e-01   1.69885830e-01
C     8.543563746905097e+00   7.147264653833042e-01   3.013628220006607e+00  1.14194520e-01  -6.72189540e-01  -3.08762280e-01
C     1.229395491755405e+00   2.119471528087991e+00   3.012407331346362e+00 -5.99291700e-01  -1.46531200e-01  -2.24311360e-01
C     2.449239036095082e+00   2.811995134697169e+00   2.997495972174623e+00 -3.78013000e-01   3.92833330e-01   1.40783270e-01
C     3.661022453877115e+00   2.115809166184910e+00   3.008610882492359e+00  1.90689160e-01  -1.81883590e-01  -1.45119860e-01
C     4.867706726201102e+00   2.820637613293234e+00   3.006675210346654e+00  8.61667560e-01   3.67719830e-01  -4.45824700e-02
C     6.111161731005134e+00   2.125659744526567e+00   2.990113002299368e+00 -1.13579329e+00  -5.69677740e-01   2.61953180e-01
C     7.312212524642226e+00   2.826601005711001e+00   3.002353288448729e+00  9.02990990e-01  -2.52307900e-02  -1.76854690e-01
C     8.537850466338773e+00   2.111547894180401e+00   2.996984763149785e+00 -5.16088800e-02   6.50716730e-01   1.37758090e-01
C     9.756088826645026e+00   2.828833130534425e+00   2.996860760758902e+00  3.65074490e-01  -7.38865770e-01   6.33327300e-02
C     2.450600705532424e+00   4.219899020759401e+00   2.996072367170091e+00 -1.04920413e+00   3.25524330e-01   1.43209700e-01
C     3.649191864784035e+00   4.934428865599388e+00   3.012191099952771e+00  5.53039820e-01   3.03015740e-01  -5.70369700e-02
C     4.869539899228440e+00   4.238494727033217e+00   3.011485791577866e+00  4.36501500e-01  -7.82275080e-01  -6.71058900e-02
C     6.107176113766640e+00   4.915993122500222e+00   2.995179156808632e+00 -6.67774460e-01   1.08120655e+00   3.99599000e-03
C     7.327773386238196e+00   4.237194277454379e+00   2.989858842384431e+00 -2.17851630e-01  -5.21516480e-01   1.39260890e-01
C     8.541990752078190e+00   4.939073830060099e+00   3.004191645421384e+00  4.99049900e-02  -3.56953990e-01  -1.90313490e-01
C     9.754966221829777e+00   4.227994289288705e+00   2.996370226081642e+00  2.82710410e-01   2.59755120e-01   1.09150340e-01
C     1.097552710337332e+01   4.931276073949875e+00   3.009022052744932e+00  3.89910060e-01  -5.41270800e-02  -1.39679800e-01
C     3.654254287232917e+00   6.342467701427858e+00   3.008347297094233e+00  8.90263400e-02   1.52795460e-01  -3.57712700e-02
C     4.888123053443953e+00   7.048329551105907e+00   3.010142097891889e+00 -7.09429450e-01  -1.01738290e-01  -2.28118590e-01
C     6.093743168139902e+00   6.338045435979468e+00   2.990511193444100e+00  8.50667360e-01  -2.37695060e-01   2.05282530e-01
C     7.329482766637122e+00   7.040600081615477e+00   3.004718609988089e+00 -5.29493300e-01   1.81559290e-01  -2.16922900e-01
C     8.546792957429652e+00   6.333445538868137e+00   2.992652229541878e+00 -1.50256280e-01   5.94806690e-01   1.58389500e-01
C     9.763126614619949e+00   7.046396461205221e+00   2.999038989181928e+00 -4.71185260e-01  -5.43425400e-02  -3.80128200e-02
C     1.097065260063012e+01   6.349106398336134e+00   3.004632224752134e+00  3.81067810e-01  -7.68330460e-01  -5.73886900e-02
C     1.218857872659811e+01   7.041844384123722e+00   2.990393830644468e+00  6.60334970e-01   1.73430010e-01   1.50311920e-01
