2
Lattice="2.527 0 0 1.2635 2.18844619536328 0 0 0 30 " PBC="1 1 1" Properties=species:S:1:pos:R:3:force:R:3 Energy="-16.05037294"
C     0.000000000000000e+00   0.000000000000000e+00   3.000000000000000e+00 -0.00000000e+00   0.00000000e+00   0.00000000e+00
C     1.263500000000000e+00   7.294820651210921e-01   3.000000000000000e+00  0.00000000e+00   0.00000000e+00   0.00000000e+00
