32
Lattice="9.86 0 0 4.93 8.53901048131456 0 0 0 30 " PBC="1 1 1" Properties=species:S:1:pos:R:3:force:R:3 Energy="-252.36063698"
C     9.740452232799999e+00   3.661847052815952e-01   4.422467399999999e+00  5.27335550e-01  -1.90569537e+00   6.05508140e-01
C     1.147808269500000e+00   1.020781918464308e+00   4.264538100000000e+00 -1.89171808e+00   1.50794280e-01  -3.83369500e-02
C     2.338484318700000e+00   3.828729204131832e-01   4.545432600000001e+00  1.47015267e+00  -3.50417486e+00   1.67011964e+00
C     3.547859808600000e+00   1.110460570497678e+00   4.537063200000000e+00  6.68923540e-01   7.94361770e-01  -3.76670920e-01
C     4.770136664800000e+00   4.168896910722544e-01   4.735973100000000e+00  2.63986685e+00  -3.78200640e-01  -1.61975660e-01
C     6.064496283500000e+00   1.072031863903801e+00   4.638086400000000e+00  7.91633150e-01   1.72654370e+00  -1.64938344e+00
C     7.337887231800000e+00   4.413560054599696e-01   4.424023800000000e+00 -2.56870749e+00  -2.84418223e+00   1.16579070e+00
C     8.559194209099999e+00   1.142336098888785e+00   4.214504400000000e+00 -2.30884330e-01  -1.42841321e+00   1.33573926e+00
C     1.101340870020000e+01   2.379539237968693e+00   3.915427800000000e+00  1.57487190e-01   4.53302695e+00   2.32658170e-01
C     2.411121558300000e+00   3.179878915782369e+00   3.999925800000000e+00 -1.94919785e+00   2.40188318e+00   7.49498750e-01
C     3.612518977100000e+00   2.587506411258569e+00   4.280226000000000e+00  1.22478590e+00  -4.50225612e+00   7.81140900e-01
C     4.891887648999999e+00   3.205317738073651e+00   4.521381300000000e+00 -1.51064990e+00  -1.11486230e+00  -4.55172700e-02
C     6.148382254800000e+00   2.510597166277200e+00   4.519434900000000e+00 -3.29009515e+00  -1.39911712e+00   9.28921450e-01
C     7.302558161600000e+00   3.246565769757710e+00   4.515853800000000e+00  3.03361430e+00   8.67378700e-02   3.43495000e-01
C     8.580173331099999e+00   2.564910310946183e+00   4.203757200000000e+00 -2.09306534e+00  -1.16136280e-01  -3.90238070e-01
C     9.750304344800000e+00   3.248398582967138e+00   3.891859800000000e+00  1.88765690e+00  -2.07591733e+00   1.10309215e+00
C     1.229390772250000e+01   4.697851465262956e+00   4.175285400000000e+00 -3.92043458e+00  -2.25946889e+00  -8.21222010e-01
C     3.628421628800000e+00   5.335470563908285e+00   4.428257700000001e+00 -4.04403180e-01   5.75413570e-01   4.67631050e-01
C     4.801457151999999e+00   4.546121361093312e+00   4.754129100000000e+00  3.33470050e-01   2.79738833e+00  -1.30649822e+00
C     6.006094566800000e+00   5.240314392822309e+00   4.949385900000000e+00  1.81893573e+00   1.37577925e+00   1.03937288e+00
C     7.289360452999999e+00   4.618651032989593e+00   4.922362500000000e+00  1.61848410e+00  -2.58534220e-01  -3.40639953e+00
C     8.558753417800000e+00   5.361842102314297e+00   4.582902300000000e+00 -8.19909000e-01  -1.40100652e+00   9.90877420e-01
C     9.739651354299999e+00   4.650542102379774e+00   4.050132600000000e+00 -2.51207900e-02   1.69711224e+00   2.30756729e+00
C     1.094613037060000e+01   5.398960839310438e+00   4.253202000000000e+00  2.25751969e+00  -1.57020059e+00  -1.77905343e+00
C     1.342835795980000e+01   6.798374864023143e+00   4.415928600000000e+00  3.26037300e-02  -2.06978296e+00   2.58478188e+00
C     4.750803965600000e+00   7.418790845204939e+00   4.838303400000000e+00  2.76445400e+00   2.85004600e+00  -2.71871088e+00
C     6.064150542599999e+00   6.648332666055079e+00   5.000747100000000e+00 -1.94879553e+00   2.61386808e+00  -6.07653650e-01
C     7.301687474300000e+00   7.372240344183114e+00   4.951650000000000e+00 -1.84875650e-01   3.20716316e+00  -9.80313560e-01
C     8.605922030900000e+00   6.757919679462151e+00   4.898052900000000e+00 -1.08325086e+00  -8.89222600e-02  -8.94471210e-01
C     9.818190789899999e+00   7.534827373227554e+00   4.786452600000000e+00 -3.37275034e+00  -4.31292770e-01  -9.49821000e-01
C     1.094211340660000e+01   6.801867831650091e+00   4.399857600000000e+00  1.17361427e+00   3.53321070e-01   1.75517210e+00
C     1.216561581150000e+01   7.482830264371062e+00   4.498488600000000e+00  2.89332043e+00   2.18472424e+00  -1.93510097e+00
