26
Lattice="8.88768389401873 1.33226762955019e-15 0 4.44384194700937 7.69696003302603 0 0 0 30 " PBC="1 1 1" Properties=species:S:1:pos:R:3:force:R:3 Energy="-205.91171005"
C     1.261744145548433e+01   6.749733105120848e+00  -2.089259999999982e-02  6.15104550e-01  -1.84896070e+00   6.24348800e-01
C     8.779531757636509e+00   6.601228112241228e+00   1.937100000000000e-03  3.44817104e+00   9.03475810e-01   1.68172010e-01
C     1.028708309577157e+01   6.216164595860388e+00  -9.080399999999855e-02 -4.09069052e+00  -2.97586324e+00   4.50717550e-01
C     1.056267146365881e+01   4.727466077101173e+00  -1.179335999999971e-01  1.71893388e+00   3.48546054e+00   5.44488170e-01
C     6.483246733711215e+00   5.945271473057343e+00   3.450810000000000e-02 -2.84265332e+00   3.90882373e+00   1.21031220e+00
C     7.769952103213402e+00   5.583523126181777e+00   1.247268000000000e-01  4.28192101e+00   2.28612960e+00  -1.46891720e+00
C     8.160717744297925e+00   4.294932329431311e+00  -7.970940000000226e-02  1.17447866e+00  -3.96635508e+00   9.48084810e-01
C     9.532031820177957e+00   3.798240417492184e+00  -5.939640000000068e-02 -2.48182940e-01   1.00920837e+00  -1.59236510e-01
C     9.916680957165603e+00   2.442259964773456e+00   7.975739999999999e-02 -2.77272788e+00  -2.06510439e+00  -6.09070300e-01
C     4.132530600725298e+00   5.316133197766788e+00  -1.962899999999834e-02 -1.57929222e+00   2.38390179e+00  -9.93738390e-01
C     5.521067319452394e+00   5.016762708305548e+00  -9.117420000000109e-02 -3.89506820e+00  -5.08669452e+00   2.18604046e+00
C     5.782240708408644e+00   3.541331054702043e+00   1.558428000000000e-01  1.10543239e+00   3.90422511e+00  -3.63931264e+00
C     7.186293056869292e+00   3.274294801600431e+00  -3.723990000000299e-02 -2.17800844e+00  -3.97154640e-01   5.48943100e-01
C     7.459190100842662e+00   1.913795694556892e+00  -9.101640000000089e-02  1.85775885e+00  -2.64588016e+00   8.24937750e-01
C     8.832996372172834e+00   1.433334670111426e+00   5.220570000000000e-02  3.54898790e-01   1.38348944e+00  -6.82560100e-02
C     3.073194847843354e+00   4.323407156092697e+00  -6.143910000000119e-02 -6.03752670e-01   2.39073673e+00   2.81129380e-01
C     3.396850921003391e+00   2.998366327545761e+00   2.841300000000000e-02 -3.35568600e-01  -2.41326924e+00  -9.66601020e-01
C     4.744637120208505e+00   2.600911706121424e+00  -9.210810000000080e-02  3.75456640e-01   3.59768358e+00   2.05890891e+00
C     5.108512273793179e+00   1.313701128243538e+00  -7.644569999999717e-02 -3.23380789e+00  -4.20352239e+00  -1.11614830e-01
C     6.396828136047731e+00   9.412939541488274e-01  -5.130780000000001e-02  4.90426897e+00  -2.84652527e+00   7.02642400e-02
C     1.128895823917144e+01   7.155213500707665e+00   1.432770000000000e-02 -1.93620443e+00   2.68380164e+00  -1.08205025e+00
C     2.365444181461199e+00   1.969404537442435e+00   7.765530000000000e-02 -7.11799160e-01   4.29699799e+00   6.03754520e-01
C     2.642259760855854e+00   6.590935352441111e-01   2.297718000000000e-01  9.27317320e-01  -3.14315699e+00  -1.15550643e+00
C     4.032245127588750e+00   3.137721174341715e-01  -9.310500000001554e-03 -9.50790900e-02  -2.03877874e+00   1.03124360e+00
C     2.777650515388866e-01   3.552170144725090e-02   1.268364000000000e-01 -1.31148532e+00   1.07023482e+00  -3.96236950e-01
C     6.014085854904577e+00   7.324765368971717e+00   2.365551000000000e-01  5.07057858e+00   3.27096210e-01  -9.00804960e-01
