52
Lattice="8.88768389401873 1.33226762955019e-15 0 4.44384194700937 7.69696003302603 0 0 0 30 " PBC="1 1 1" Properties=species:S:1:pos:R:3:force:R:3 Energy="-414.37027023"
C     1.244380428606717e+01   6.496523286169126e+00  -1.962918000000009e-01 -3.26854828e+00  -2.09101244e+00   5.59129280e-01
C     8.495237368915449e+00   6.238761715964463e+00  -4.293420000000125e-02  1.84202790e+00  -2.41304809e+00  -3.87657150e-01
C     9.915743042072453e+00   5.810081605272822e+00  -8.067000000000135e-02  4.48663070e-01   2.83651110e+00   1.77456660e-01
C     1.026540989976797e+01   4.463746521046088e+00  -1.971114000000007e-01  6.94518800e-01  -7.90689110e-01   7.00201080e-01
C     6.148738353108410e+00   5.686456958720577e+00  -1.759515000000000e-01  9.01967960e-01  -4.19071886e+00   4.12605250e-01
C     7.463445703752506e+00   5.161348947925093e+00  -4.540919999999815e-02  2.16484076e+00   3.16436999e+00  -1.53468464e+00
C     7.858268972426711e+00   3.792896879960956e+00  -2.758469999999988e-01 -1.62765959e+00   2.59444011e+00   1.39420634e+00
C     9.195177268737645e+00   3.471347523203672e+00  -1.951761000000012e-01  2.23063353e+00   2.11829981e+00  -2.55556010e-01
C     9.583304600854394e+00   2.175017741021442e+00  -9.026879999999693e-02  1.70749808e+00  -2.53102631e+00  -1.17723414e+00
C     3.862185743007660e+00   5.060086279348008e+00  -2.631282000000006e-01 -4.16570387e+00   1.02837806e+00   2.50092640e-01
C     5.143238323315387e+00   4.623949199840101e+00  -2.877317999999995e-01  2.01197520e+00   4.27854665e+00   1.40179810e+00
C     5.495278503723694e+00   3.347231040905510e+00  -2.616809999999958e-02  5.83213780e-01  -3.46901937e+00  -3.15505386e+00
C     6.809098863542606e+00   2.863744957229054e+00  -2.437919999999991e-01  1.25651882e+00  -2.28910400e-02   7.80101900e-01
C     7.180360837788532e+00   1.499190706793710e+00  -2.473851000000025e-01  2.17718341e+00   9.78326930e-01   5.96187270e-01
C     8.597106887409108e+00   1.169490808151857e+00  -2.058399000000009e-01 -3.26197450e-01  -1.75051897e+00   6.86246550e-01
C     2.796761526715399e+00   4.067528416250572e+00  -1.897886999999976e-01 -5.27566310e-01   1.58194392e+00  -3.10946520e-01
C     3.194975046844529e+00   2.693944400186433e+00  -1.759422000000015e-01 -4.17925907e+00   2.51635472e+00  -7.31274760e-01
C     4.500306024436478e+00   2.379031054488613e+00  -2.891547000000010e-01  2.09160213e+00  -4.51816640e+00   2.51720497e+00
C     4.833423259203211e+00   9.211304588670374e-01  -1.539260999999996e-01  4.47574700e-02   1.09938738e+00  -6.98270360e-01
C     6.216159964242094e+00   5.318034423863798e-01  -7.938629999999947e-02 -2.13915580e+00  -1.31886837e+00  -4.27825230e-01
C     1.101116945734914e+01   6.861961401743874e+00  -1.354320000000087e-02  9.38785700e-02  -2.04598202e+00  -1.34135382e+00
C     2.103057533718079e+00   1.814549706477266e+00  -1.453001999999977e-01  8.07076700e-02  -4.12084273e+00   1.44109302e+00
C     2.489423193469610e+00   3.597238924484752e-01   1.806900000000000e-02 -4.20115200e+00   1.19068263e+00  -1.82179534e+00
C     8.213257334217886e+00   7.628956849347748e+00  -1.634241000000003e-01  2.51166110e+00   2.88127040e-01   1.50887783e+00
C     4.558435346516307e+00   7.453999713933028e+00  -1.535286000000013e-01 -1.39648842e+00   1.95437797e+00  -1.41153670e-01
C     5.879139839673087e+00   7.012370160717313e+00  -6.232470000000134e-02  1.00010096e+00   3.62329453e+00  -6.12599700e-02
C     9.701792632007493e-01   1.288910374530912e+00   3.414676200000000e+00 -1.39210195e+00  -2.16840765e+00   1.98587355e+00
C     3.294425650806373e+00   6.328090324984634e-01   3.412223400000000e+00  3.80748334e+00   1.71565929e+00   9.30151640e-01
C     4.726707239009746e+00   1.008669678619434e+00   3.464842200000000e+00 -1.56022900e-01   2.57927501e+00   9.58282650e-01
C     5.785868392113618e+00   1.109389788484005e-01   3.533207100000000e+00  7.58732850e-01  -1.97265557e+00  -8.85524600e-02
C     7.207300784612957e+00   5.183383805098978e-01   3.582480600000000e+00 -3.00233464e+00  -2.88824374e+00   8.29147340e-01
C     1.260520529252225e+01   7.168288942467429e+00   3.668966700000000e+00 -5.06123190e-01   1.39870200e-01  -9.51161820e-01
C     5.043748303047948e+00   7.566319296502009e+00   3.536582100000000e+00  3.24132694e+00   3.86794870e-01  -4.56593940e-01
C     6.159527335364618e+00   6.594761126424022e+00   3.493894200000000e+00 -2.15594882e+00  -2.73760520e-01  -1.92833110e-01
C     7.512014186652483e+00   6.985087054377374e+00   3.415190700000000e+00 -1.68205338e+00  -1.19683144e+00   1.11519562e+00
C     8.544547305527082e+00   6.035328137526752e+00   3.634872600000000e+00 -1.85360911e+00  -2.39181673e+00  -1.77240822e+00
C     9.846961256828576e+00   6.396332111397816e+00   3.575380200000000e+00  3.79493831e+00   4.11650230e-01  -8.46216000e-03
C     1.086111548967650e+01   5.335542775813638e+00   3.558436800000000e+00  6.87278610e-01   1.82452244e+00   1.00593935e+00
C     3.357148439047733e+00   5.797439194484346e+00   3.640474200000000e+00  3.59817530e-01  -1.79038963e+00  -5.91596530e-01
C     4.442066411077811e+00   4.813580204704015e+00   3.583950600000000e+00 -2.30628122e+00  -5.73141250e-01  -2.88580560e-01
C     5.816153044963176e+00   5.205774107887047e+00   3.514724100000000e+00 -1.07411010e+00  -5.95806200e-02   9.63551470e-01
C     6.788983058390669e+00   4.195681646206068e+00   3.618917100000000e+00  3.14083511e+00   6.21975320e-01  -1.38149769e+00
C     8.240402363024307e+00   4.610313034542152e+00   3.552846000000000e+00 -4.14511508e+00   7.50035950e-01   1.16745986e+00
C     9.163869380219458e+00   3.576002857822781e+00   3.560969100000000e+00  1.44498497e+00   3.35985477e+00   2.26225690e-01
C     1.050592697884224e+01   3.959620577231586e+00   3.609392400000000e+00  2.62819985e+00   2.82745450e-01  -1.60267006e+00
C     2.675946439528936e+00   2.958561344811415e+00   3.450665400000000e+00  1.82127200e-02   2.67653283e+00   2.11093690e+00
C     4.032847714558565e+00   3.395748828454616e+00   3.536453400000000e+00  2.62548063e+00   3.94470000e-01   3.64132250e-01
C     5.149922260109733e+00   2.412291235139850e+00   3.641176500000000e+00 -3.51536085e+00  -4.04358510e-01  -2.01383740e+00
C     6.497660377456311e+00   2.801941139093765e+00   3.562379700000000e+00 -6.36427190e-01   8.56313930e-01   1.67356128e+00
C     7.535521662812129e+00   1.835498291682117e+00   3.686770800000000e+00 -6.25632580e-01   1.74489479e+00  -1.75928389e+00
C     8.853693344385901e+00   2.274344778090184e+00   3.540328800000000e+00 -3.96602220e-01  -3.40029323e+00   9.31664000e-02
C     2.305580875326542e+00   1.623617453550680e+00   3.592152900000000e+00  1.01470117e+00  -5.52891780e-01  -2.73723487e+00
