72
Lattice="7.395 0 0 3.6975 6.40425786098592 0 0 0 13.6 " PBC="1 1 1" Properties=species:S:1:pos:R:3:force:R:3 Energy="-579.32232615"
C     3.709337287425000e+00   6.384943194677447e+00   1.345729873600000e+01  5.25514390e-01  -4.42621380e-01   4.26894330e-01
C     1.196152934100000e+00   7.509356102696448e-01   1.345976468800000e+01  1.66856920e+00  -2.74788528e+00   5.39521920e-01
C     1.244274972225000e+00   7.267663894040551e-01   3.401011567999999e+00  1.13764217e+00   3.93257030e-01   4.02336800e-01
C     2.463574367250000e+00   1.508980843359990e+00   3.400999328000000e+00  1.27073380e+00  -3.60504392e+00   1.61682180e-01
C     6.089312732624999e+00   6.381524345661465e+00   1.351700382400000e+01  3.21596044e+00   7.80592720e-01  -4.26599390e-01
C     3.707067355200000e+00   7.314740953143625e-01   1.339180222400000e+01 -9.19848700e-01  -1.99436125e+00   1.67810810e+00
C     3.713971290225000e+00   7.425387956616630e-01   3.452922768000000e+00 -2.02722098e+00  -1.16500412e+00   1.17070000e-01
C     4.904351021775000e+00   1.446362635750633e+00   3.471032664000000e+00  2.08379100e+00   1.31291600e-01   4.07634050e-01
C     8.663468823975000e+00   6.400086830898362e+00   1.347637708800000e+01 -9.78728040e-01  -7.34227130e-01   1.07936210e-01
C     6.235513657424999e+00   7.027390228500642e-01   1.352192348800000e+01 -4.01105353e+00   4.26448580e-01   2.91873490e-01
C     6.155046074175000e+00   7.698237520187214e-01   3.480117872000000e+00  1.74210741e+00  -2.07477365e+00   2.98515150e-01
C     7.456063436025000e+00   1.458442859266794e+00   3.422116456000000e+00 -3.81038126e+00  -1.16263418e+00   1.67347000e-03
C     1.237525592700000e+00   2.142699578188369e+00   1.349007024800000e+01 -2.34106720e-01  -3.80079560e-01  -6.59814540e-01
C     2.452834682700000e+00   2.847304737736259e+00   1.332298908000000e+01 -4.66480600e-02  -1.18384400e-01   1.53284351e+00
C     2.519522496900000e+00   2.883363143106046e+00   3.419994720000000e+00 -3.05578424e+00   1.74170517e+00  -9.67269400e-02
C     3.736894422150000e+00   3.600284459029659e+00   3.472796856000000e+00  3.00662850e-01  -1.65220881e+00   5.92747090e-01
C     3.674516081175000e+00   2.152301930295917e+00   1.346662289600000e+01  1.37215725e+00  -9.39193150e-01  -1.10909482e+00
C     4.940806596974999e+00   2.829835267188329e+00   1.355213656800000e+01 -1.30063836e+00   7.55715230e-01   7.74425920e-01
C     4.966295202300000e+00   2.846645355346993e+00   3.567469856000000e+00 -1.10063262e+00   2.15457321e+00  -1.46700191e+00
C     6.192839367900000e+00   3.599490715310490e+00   3.471718648000000e+00 -2.81324945e+00  -1.35397600e+00   2.22118470e-01
C     6.160379680949999e+00   2.164727407353311e+00   8.119866400000000e-02 -1.99903100e-02  -3.68593786e+00  -1.30324958e+00
C     7.392489915150000e+00   2.782558459282602e+00   1.300119200000000e-02  4.19505610e-01   2.31533702e+00  -4.93976400e-02
C     7.337358082574999e+00   2.855371220723822e+00   3.382833128000000e+00  4.69739596e+00   1.34770322e+00   4.03259180e-01
C     8.590242276825000e+00   3.598993552772818e+00   3.413783872000000e+00  2.08482695e+00  -9.83201740e-01  -3.70902800e-01
C     9.833502433200000e+00   4.257778616907816e+00   1.337902216800000e+01  2.22670670e+00  -8.29763820e-01   3.68475050e-01
C     3.718187438550000e+00   4.935056423911615e+00   1.344655664000000e+01 -1.87773468e+00   1.95748846e+00   8.02793700e-02
C     3.722415973500000e+00   4.990118952140323e+00   3.512331920000000e+00 -2.71203680e-01   1.26155658e+00   3.56201800e-02
C     4.957075190249999e+00   5.681294639126106e+00   3.479240944000000e+00 -1.22749767e+00   2.35211413e+00  -2.49324220e-01
C     4.917637618275000e+00   4.264590505780606e+00   1.029003200000000e-02  9.43337500e-02  -1.78356856e+00  -5.24793800e-01
C     6.130252229100000e+00   4.940524379272482e+00   6.374809599999999e-02  1.52747828e+00   1.28191758e+00  -9.16909770e-01
C     6.156890793900000e+00   5.006430340739428e+00   3.453994856000000e+00  1.98379742e+00  -8.61780610e-01   3.73989670e-01
C     7.412731213349999e+00   5.665949396867760e+00   3.504602224000000e+00 -8.13119610e-01   3.62590020e+00  -1.04278407e+00
C     7.382687805674999e+00   4.179674401452350e+00   1.358741741600000e+01 -6.83342700e-02   2.68776998e+00   3.44634760e-01
C     8.627633430450000e+00   4.895352586882758e+00   1.350255314400000e+01 -1.59929360e+00   3.44055317e+00  -3.65363680e-01
C     8.646267758175000e+00   5.021273040883500e+00   3.441480680000000e+00 -2.43891000e-01  -1.51250538e+00   8.99855520e-01
C     9.880391724824999e+00   5.713791060316740e+00   3.561183664000000e+00  1.26985290e-01   1.41900151e+00  -1.22445221e+00
C     3.710558201925000e+00   6.389510199042571e+00   7.054444167999999e+00 -6.43025300e-01   2.42660589e+00  -1.25123564e+00
C     1.261825451775000e+00   7.116159646698103e-01   6.871468544000000e+00 -1.44767932e+00   1.05285933e+00  -8.76810200e-02
C     1.271214772350000e+00   6.901429363632804e-01   1.021002768800000e+01 -4.64426217e+00  -8.15368770e-01  -4.15524090e-01
C     2.447190338025000e+00   1.390552090203877e+00   1.021491212800000e+01  1.12400740e+00   7.87039330e-01  -4.37054090e-01
C     6.165229654725000e+00   6.402429508423549e+00   6.721012288000000e+00  9.04514940e-01   1.06657457e+00  -1.25020600e-02
C     3.727691788350000e+00   7.099272259147068e-01   6.602682904000000e+00 -2.66704460e-01   4.26177960e-01   1.29702675e+00
C     3.675064568325000e+00   6.770483424446742e-01   1.028641712000000e+01  1.27097443e+00  -1.83279860e-01   1.11297053e+00
C     4.932107008050000e+00   1.386781455303645e+00   1.033947507200000e+01 -2.33990539e+00   8.00214990e-01  -1.87415989e+00
C     8.668556842799999e+00   6.402699063636876e+00   6.867269544000000e+00 -2.37120868e+00   9.28934830e-01  -1.22076089e+00
C     6.143432448525000e+00   7.028390573578375e-01   6.939350087999999e+00  3.14303738e+00   2.18768624e+00   4.87186310e-01
C     6.133856330250000e+00   7.168808410139376e-01   1.024558964800000e+01  3.97947800e-01  -1.52181639e+00   5.48405140e-01
C     7.319671535025000e+00   1.418920903161162e+00   1.015836400800000e+01  4.45372320e+00  -1.58570595e+00   3.17287070e-01
C     8.612154253425000e+00   2.190582485057967e+00   6.798832168000000e+00  1.19522548e+00  -2.72989772e+00   4.09493130e-01
C     2.469229582575000e+00   2.851491008971605e+00   6.748858016000000e+00  7.17233750e-01   2.54400740e-01  -7.91325380e-01
C     2.441939666175000e+00   2.824422388445058e+00   1.010894623200000e+01  4.84242700e-01   1.88397900e-01   4.82393420e-01
C     3.705930336975000e+00   3.522693096543621e+00   1.009116436800000e+01 -2.23297668e+00  -4.26151100e-02   1.73079450e-01
C     3.730291056900000e+00   2.160476004815528e+00   6.581067064000000e+00 -1.77238423e+00  -1.58870222e+00   1.20874041e+00
C     4.922178222225000e+00   2.876482344418683e+00   6.709885448000000e+00  1.73466134e+00  -6.03778100e-01   6.60075890e-01
C     4.909836595800000e+00   2.791409527900594e+00   1.010487656800000e+01  1.40111802e+00   8.71460220e-01   1.02459818e+00
C     6.158006810325000e+00   3.516648629890196e+00   1.014879341600000e+01 -6.30016970e-01   8.46365390e-01   5.31089990e-01
C     6.195410017800000e+00   2.175232055350754e+00   6.879794599999999e+00 -2.66725779e+00  -1.97367979e+00  -8.47872720e-01
C     7.383229822200001e+00   2.862174399805921e+00   6.846050280000000e+00  1.09965132e+00   2.33773980e+00  -2.89944600e-02
C     7.396910054549999e+00   2.790772432328681e+00   1.017399530400000e+01 -1.32830896e+00   2.51715399e+00  -1.44731470e-01
C     8.605238412449999e+00   3.551123070163469e+00   1.017184691200000e+01  1.18217795e+00  -8.01232070e-01   4.27901890e-01
C     2.498157602400000e+00   4.267588018671979e+00   6.837701376000000e+00 -2.89423812e+00   3.54952500e-01   4.73246570e-01
C     3.639062380575000e+00   5.015647796949590e+00   6.953016592000000e+00  4.27650597e+00  -2.09460221e+00  -6.23884660e-01
C     3.626883776925000e+00   4.941584476076049e+00   1.014488926400000e+01  2.57523110e+00   6.90581240e-01   4.08523600e-02
C     4.893529400625000e+00   5.655950493113521e+00   1.017922885600000e+01  4.55203120e-01   8.41758280e-01   5.12035840e-01
C     4.925778884700000e+00   4.263565888565584e+00   6.827703064000000e+00 -6.76161000e-01   1.96974920e+00  -1.26068510e-01
C     6.170713490924999e+00   4.986297851688153e+00   6.755425864000000e+00 -1.29478973e+00   3.59533370e-01   6.40856230e-01
C     6.130148144474999e+00   4.978670508662050e+00   1.028165100000000e+01  1.22512310e+00  -2.02219276e+00  -4.87829020e-01
C     7.418687959800000e+00   5.657634748888122e+00   1.042666956800000e+01 -2.74779233e+00   9.75531490e-01  -1.37555767e+00
C     7.395782354025000e+00   4.341330678354470e+00   6.793672872000000e+00  7.97789750e-01  -2.64964246e+00   3.09294700e-02
C     8.644336184175000e+00   5.012628701709229e+00   6.859354616000000e+00  1.82137290e-01  -1.69710676e+00  -1.14895830e-01
C     8.634358184624999e+00   4.971758136983438e+00   1.034008802400000e+01 -3.39248660e-01  -7.76952510e-01  -4.66644120e-01
C     9.845295942224999e+00   5.696257483147632e+00   1.027606711200000e+01 -3.42206910e-01  -8.54716890e-01  -3.59202100e-01
