32
Lattice="9.86 0 0 4.93 8.53901048131456 0 0 0 30 " PBC="1 1 1" Properties=species:S:1:pos:R:3:force:R:3 Energy="-257.31350946"
C     4.992218769200000e+00   6.835803396319498e+00  -8.240009999999742e-02  7.10290600e-01  -1.61189080e-01   1.32351400e-02
C     6.248609499900000e+00   7.544105520454703e+00  -1.125572999999989e-01 -9.07786630e-01  -3.42907420e-01   2.64459000e-03
C     7.461755650999999e+00   6.811964869982272e+00  -1.568250000000013e-01  2.41168790e-01   2.66898890e-01  -1.77731140e-01
C     8.693224640100000e+00   7.524048580298651e+00  -1.331741999999991e-01  5.68001280e-01   2.16710600e-01   5.86214730e-01
C     9.944323163700000e+00   6.851520213618882e+00   4.854000000000000e-03 -1.20268842e+00  -2.34312064e+00  -6.30585480e-01
C     1.116451788370000e+01   7.515259718372006e+00   1.770000000000000e-04  3.17975680e-01   5.91635780e-01   4.41265970e-01
C     1.239300545530000e+01   6.793492855561412e+00   1.200822000000000e-01  6.42059560e-01   1.72308411e+00  -4.22388300e-01
C     1.363670232340000e+01   7.538585647910117e+00   6.831960000000001e-02 -4.32476250e-01  -6.39564090e-01  -1.27555580e-01
C     1.325451353900000e+00   4.204063117582328e-01  -2.002500000000040e-02 -1.44522497e+00  -1.22682160e-01   9.08435090e-01
C     2.543759658700000e+00   1.100844876186255e+00   3.619560000000000e-02  1.55856410e-01   1.15742897e+00  -6.00756830e-01
C     3.767762655800000e+00   4.008570157752160e-01  -8.950109999999967e-02  2.60624740e-01   5.35238090e-01  -9.58815300e-02
C     5.006535193400000e+00   1.135828945952501e+00  -1.494198000000004e-01 -6.91174990e-01  -8.56239390e-01   2.36373440e-01
C     6.213773133899999e+00   3.962101716621048e-01  -1.015823999999981e-01  1.23521907e+00   5.84616490e-01   2.62172240e-01
C     7.455370216400000e+00   1.108132323900202e+00  -3.155969999999897e-02  5.29965940e-01   7.14514410e-01   1.35501310e-01
C     8.719166497300000e+00   4.180312713833256e-01   9.357780000000000e-02 -1.50807044e+00   1.22397600e-02  -3.75709890e-01
C     9.921077523500001e+00   1.139626500083271e+00   1.201743000000000e-01  1.32966036e+00  -3.85872950e-01  -4.10626460e-01
C     2.533400545500000e+00   2.539158533920809e+00   8.172330000000000e-02 -8.95912000e-03  -4.48799430e-01  -1.12974040e-01
C     3.739639963800000e+00   3.230040222775767e+00  -8.752799999999894e-02  1.32847805e+00   1.35846314e+00   6.50662330e-01
C     4.988396836000000e+00   2.551681761300672e+00  -1.706189999999985e-01  8.54838510e-01  -1.04706980e-01  -3.32913860e-01
C     6.248826469200000e+00   3.266868121074958e+00  -2.406143999999983e-01 -1.11496118e+00  -2.22308120e-01   4.68512090e-01
C     7.476004189099999e+00   2.548031590490786e+00  -1.022496000000004e-01  2.63276260e-01   1.24729490e-01  -2.60701930e-01
C     8.730646939000000e+00   3.288453031766303e+00  -3.547680000000142e-02 -1.53726157e+00  -9.61804250e-01   2.02637520e-01
C     9.924233660199999e+00   2.557490337789587e+00   1.513020000000000e-01  9.89622940e-01   5.46803300e-01  -4.75995710e-01
C     1.118848966360000e+01   3.275717439195802e+00   1.715163000000000e-01 -1.46269479e+00  -1.15062940e+00  -1.36721660e-01
C     3.782531900500000e+00   4.666091128123225e+00  -5.407500000000454e-03 -9.42742470e-01   6.15837880e-01  -3.98045480e-01
C     4.998216262100000e+00   5.410492004452735e+00  -1.884350999999995e-01 -8.63909180e-01  -3.71403600e-01   7.39786000e-01
C     6.207326616600000e+00   4.695978433314169e+00  -2.610303000000016e-01  1.62835376e+00  -3.53228550e-01   7.84109900e-02
C     7.461536660400000e+00   5.396834625700919e+00  -2.068046999999993e-01 -5.05692990e-01   6.09812000e-02  -1.07523500e-01
C     8.700917116299999e+00   4.710044659887767e+00  -1.192667999999983e-01 -3.10591930e-01  -9.19571970e-01   4.87225310e-01
C     9.914878738699999e+00   5.386515146145734e+00   3.927480000000000e-02  8.04726250e-01   1.72048295e+00   1.57974400e-02
C     1.114007213360000e+01   4.678178524408189e+00   1.624968000000000e-01  1.23528910e+00   7.90346860e-01  -1.70292970e-01
C     1.240354944350000e+01   5.403608878885017e+00   1.529217000000000e-01 -1.61172340e-01  -1.63598389e+00  -3.92469810e-01
