32
Lattice="9.86 0 0 4.93 8.53901048131456 0 0 0 30 " PBC="1 1 1" Properties=species:S:1:pos:R:3:force:R:3 Energy="-257.15955908"
C     9.759709059300000e+00   1.771476045517578e+00   3.699409500000000e+00  1.62461493e+00   3.91066640e-01   2.54333400e-02
C     1.104309158930000e+01   2.498690284673784e+00   3.746879100000000e+00 -1.75026405e+00  -5.36483800e-02  -2.79869000e-01
C     2.400624503700000e+00   1.776412276695857e+00   3.757481700000000e+00 -2.24159370e-01   2.65645990e-01  -2.97315690e-01
C     3.639934214100000e+00   2.495009288036065e+00   3.669151200000000e+00 -1.13867780e-01  -1.75399324e+00   2.13652560e-01
C     4.873600307000000e+00   1.762965469942477e+00   3.630114300000000e+00 -1.28062002e+00  -9.65662990e-01  -1.11601062e+00
C     6.076053090899999e+00   2.469769851639490e+00   3.485937600000000e+00 -3.02185830e-01   2.21574470e-01   5.13448910e-01
C     7.290982718800000e+00   1.756946833795753e+00   3.515921100000000e+00  1.00989720e+00   1.76849431e+00  -1.39022980e-01
C     8.529172037399999e+00   2.481603639313198e+00   3.584940000000000e+00  2.18690130e-01  -1.16698761e+00   3.49667300e-02
C     1.101799424110000e+01   3.940459679949593e+00   3.652481100000000e+00 -2.39322170e-01  -1.50324028e+00  -4.54592430e-01
C     1.223817545290000e+01   4.628318302924316e+00   3.571568400000000e+00  5.40919420e-01   3.08877500e-02   3.92611980e-01
C     3.634003029700000e+00   3.885787811450345e+00   3.589042800000000e+00 -2.56075626e+00   1.26485056e+00  -1.34525100e-02
C     4.790903205199999e+00   4.611514811151248e+00   3.507299400000000e+00  3.25661697e+00   1.42124782e+00   1.16819130e-01
C     6.037451782500000e+00   3.879074099850550e+00   3.480609900000000e+00  1.06519366e+00   1.85213743e+00   2.98279130e-01
C     7.305779275699999e+00   4.619459250331525e+00   3.529482300000000e+00 -8.48662940e-01  -1.12257005e+00  -3.27793250e-01
C     8.532480018099999e+00   3.875445020396549e+00   3.541083600000000e+00 -3.04076000e-03   1.73618835e+00   8.86997000e-03
C     9.769674216199999e+00   4.610448288742296e+00   3.522215400000000e+00 -4.52948200e-02  -4.97258160e-01   5.12469610e-01
C     1.221378417930000e+01   6.055503922201334e+00   3.534534000000000e+00  1.92539900e+00  -9.40552280e-01  -2.94403930e-01
C     1.347110110910000e+01   6.763159387072888e+00   3.562860000000000e+00 -3.40751280e-01   8.97880760e-01   9.18508600e-02
C     4.844553092100000e+00   6.090687377862287e+00   3.550468800000000e+00  9.18320200e-02  -2.30905856e+00   1.41439500e-01
C     6.103214630100000e+00   6.766085705964385e+00   3.625363200000000e+00 -8.22383640e-01  -3.92025040e-01  -5.37958300e-02
C     7.327139486700000e+00   6.040805552681900e+00   3.574340400000000e+00 -7.59488110e-01  -7.67951760e-01  -5.24888300e-02
C     8.544416534100000e+00   6.727636761915670e+00   3.549831300000000e+00  2.61954300e-02   1.36340262e+00  -1.17637500e-02
C     9.774813198899999e+00   6.016163847018926e+00   3.475413000000000e+00 -2.32978060e-01   8.82579410e-01   1.65895670e-01
C     1.100688695110000e+01   6.740105425018565e+00   3.462451800000000e+00 -3.90586350e-01   2.84961620e-01   1.10621200e-02
C     1.350241499010000e+01   8.193107205459977e+00   3.615532800000000e+00 -1.48951724e+00  -1.40294640e-01  -5.01367750e-01
C     9.797166361200000e+00   3.372333610293648e-01   3.713034300000000e+00 -6.57819130e-01   9.96112850e-01  -7.08380100e-02
C     6.094790344700000e+00   8.177288517765568e+00   3.731907600000000e+00 -9.67240570e-01  -4.26384350e-01  -2.82295010e-01
C     2.350914820700000e+00   3.466475346934600e-01   3.710073000000000e+00  1.65579931e+00   9.66859000e-01   3.30050940e-01
C     8.492995993199999e+00   8.179198438239629e+00   3.615925500000000e+00  2.28326509e+00  -1.14580075e+00  -5.20266420e-01
C     4.837620969800000e+00   3.135673227038352e-01   3.510427800000000e+00  1.09546910e-01   9.71633820e-01   7.04082110e-01
C     1.103317469710000e+01   8.154886765331707e+00   3.429268500000000e+00 -1.37115977e+00   9.55863240e-01   3.65256820e-01
C     7.313888139700000e+00   3.890850505373832e-01   3.482423100000000e+00  5.92128090e-01  -3.08595854e+00   4.89086620e-01
