32
Lattice="9.86 0 0 4.93 8.53901048131456 0 0 0 30 " PBC="1 1 1" Properties=species:S:1:pos:R:3:force:R:3 Energy="-256.92463148"
C     4.963458874700000e+00   6.992980022933705e+00   6.982410000000000e-02  1.01687723e+00   9.33784110e-01   1.25782330e-01
C     6.201119549400000e+00   7.689538958296395e+00   2.851530000000000e-02  6.69318580e-01   1.40339529e+00   9.43465300e-01
C     7.448843093599999e+00   6.988112872350209e+00   2.273184000000000e-01 -1.45495833e+00  -9.50755990e-01  -6.37303830e-01
C     8.658567430300000e+00   7.643450759301958e+00   1.866246000000000e-01  1.60536717e+00   2.26982328e+00  -5.42135010e-01
C     9.914373265799998e+00   7.013030900392317e+00   6.112200000000000e-02  6.46641060e-01  -2.40388882e+00   4.55114470e-01
C     1.117273264410000e+01   7.706203605759058e+00   4.815120000000001e-02 -9.14414910e-01  -1.49488126e+00  -1.81967560e-01
C     1.238847508110000e+01   6.958726465514023e+00  -3.709799999999319e-03 -5.04500380e-01   1.14337042e+00   1.06432160e-01
C     1.358601216200000e+01   7.713842177583943e+00   1.774920000000000e-02  1.27757104e+00  -1.75292599e+00  -1.45895540e-01
C     1.314535545100000e+00   6.184286972727864e-01  -5.834910000000093e-02 -6.77286580e-01  -2.06848098e+00  -1.93119420e-01
C     2.557580470000000e+00   1.278478410207398e+00  -7.552230000000293e-02 -6.46078990e-01   9.57546000e-03   4.57107940e-01
C     3.750699038400000e+00   5.291214921952960e-01   1.140840000000000e-01  2.79723350e-01   9.90485200e-01  -4.31399960e-01
C     4.974995764900000e+00   1.259805899820468e+00   1.415424000000000e-01  8.39424650e-01  -5.38750260e-01   3.51903700e-02
C     6.250544820700000e+00   5.606317217180680e-01   1.010397000000000e-01 -1.61117835e+00   5.16282920e-01   1.95865700e-01
C     7.444822136299999e+00   1.260466648451410e+00   6.677250000000000e-02  1.23134515e+00   1.99612732e+00   2.22501110e-01
C     8.702736039800000e+00   5.565076358265424e-01  -2.407800000000293e-03 -6.30086710e-01   2.40151467e+00  -1.37096880e-01
C     9.939425800299999e+00   1.328246922718716e+00  -8.643569999999912e-02 -4.94999260e-01  -2.50515405e+00   2.58809100e-02
C     2.527665180700000e+00   2.698566318583335e+00  -1.534152000000013e-01  1.14805470e+00   4.51844690e-01   4.44145410e-01
C     3.760619430899999e+00   3.399005465698242e+00  -4.959299999999445e-03  3.45982370e-01   1.13309368e+00   2.60882770e-01
C     4.968856435899999e+00   2.671813257189076e+00   1.841370000000000e-01  6.10811820e-01   1.24577358e+00  -1.80600510e-01
C     6.212501489700000e+00   3.440434524404477e+00   3.069105000000000e-01 -1.23741083e+00  -5.45475710e-01  -7.77769780e-01
C     7.413163204600000e+00   2.732701269147450e+00   1.624965000000000e-01  1.85867792e+00  -1.31946878e+00  -1.85923160e-01
C     8.676418812399998e+00   3.423669116618150e+00   4.309620000000000e-02 -7.46065000e-03  -3.77518690e-01   2.06999220e-01
C     9.922423857199998e+00   2.701001729762336e+00  -1.326990000000023e-01 -1.69147630e-01   2.43118405e+00   4.51771450e-01
C     1.118568306390000e+01   3.438826970291513e+00  -1.642323000000019e-01 -1.71946062e+00  -1.66423396e+00  -3.16256800e-02
C     3.796569976900000e+00   4.860115719711252e+00   1.102350000000000e-02 -2.85544490e-01  -9.09423870e-01   5.11617330e-01
C     5.030969752400000e+00   5.601482771007324e+00   2.054451000000000e-01 -2.44347872e+00  -1.26445040e+00  -8.44613940e-01
C     6.210907571400000e+00   4.874624950148553e+00   3.008250000000000e-01  2.02326398e+00  -5.12732730e-01   1.36217270e-01
C     7.484850285300000e+00   5.573005256446628e+00   2.878029000000000e-01 -1.39427780e+00  -7.92507310e-01  -2.58363650e-01
C     8.699219815899999e+00   4.842776917371193e+00   1.481052000000000e-01  8.96811500e-02   1.29747390e-01  -2.85030820e-01
C     9.930267684399999e+00   5.546097212012157e+00   6.699600000000000e-03  4.52961700e-02   1.16069139e+00   3.56180630e-01
C     1.115777438320000e+01   4.828501314260624e+00  -8.790090000000106e-02  7.93155430e-01   1.33365125e+00  -1.58590180e-01
C     1.241182213140000e+01   5.550901088527995e+00  -5.725679999999755e-02 -2.90907530e-01  -4.49695880e-01   5.62815800e-02
