32
Lattice="9.86 0 0 4.93 8.53901048131456 0 0 0 30 " PBC="1 1 1" Properties=species:S:1:pos:R:3:force:R:3 Energy="-257.18849245"
C     9.831068837300000e+00   2.691001694589208e-01   3.747798000000000e+00 -4.16909000e-03   8.14433760e-01  -6.17911810e-01
C     1.207826582500000e+00   9.639947662889544e-01   3.660294900000000e+00  7.92038800e-02   1.03770728e+00  -1.56725400e-02
C     2.450131563700000e+00   2.652384873594456e-01   3.785981100000000e+00 -7.81393170e-01   3.02348350e-01  -2.54424620e-01
C     3.652438912600000e+00   1.006788615040208e+00   3.734605200000000e+00  1.00441979e+00  -4.90071000e-01   2.14197000e-01
C     4.898495130799999e+00   2.901782898782768e-01   3.822665400000000e+00  9.29517400e-02  -4.62819670e-01  -7.54496870e-01
C     6.147147733500000e+00   9.562550071898824e-01   3.749864100000000e+00  3.26808470e-01   3.41230410e-01  -2.10231090e-01
C     7.388346817100000e+00   2.668042003210584e-01   3.662734800000000e+00 -1.08075060e-01   1.34304796e+00   6.07622400e-02
C     8.610404288300000e+00   1.011923378212146e+00   3.623350800000000e+00 -1.75942110e-01  -4.15835660e-01   4.47931670e-01
C     1.105394774510000e+01   2.405579718938396e+00   3.452005200000000e+00  1.41792263e+00  -6.76265160e-01   4.95974220e-01
C     2.455635711500000e+00   3.129489702599260e+00   3.428707500000000e+00 -6.75801080e-01  -6.79807020e-01   5.18686870e-01
C     3.688286175100000e+00   2.429091030394028e+00   3.603331800000000e+00 -7.08490680e-01  -1.34920158e+00   4.42553900e-02
C     4.939142241300000e+00   3.054745011384466e+00   3.715329900000000e+00 -9.47192900e-02   2.11672636e+00  -8.06951100e-02
C     6.174424881199999e+00   2.356164550680741e+00   3.734574600000000e+00  7.55107700e-02   1.86282192e+00   4.38952540e-01
C     7.402008389400000e+00   3.156932289089779e+00   3.741081600000000e+00 -1.56235941e+00  -1.23882390e+00  -4.75990800e-02
C     8.598645153700000e+00   2.450709072446034e+00   3.596887500000000e+00  8.29778210e-01  -1.29699934e+00   1.14879290e-01
C     9.840086694700000e+00   3.128668932911923e+00   3.482789400000000e+00 -3.20768890e-01  -5.27031020e-01   2.25551500e-02
C     1.230377033540000e+01   4.538831607846536e+00   3.441277200000000e+00  1.29543310e-01   3.70776830e-01  -5.83165100e-02
C     3.689553924600000e+00   5.241960201702224e+00   3.553623600000000e+00 -1.48206230e-01  -2.05834800e-02   4.94174770e-01
C     4.918807470299999e+00   4.509505998764967e+00   3.759066600000000e+00 -5.87718780e-01  -1.31126100e-01  -5.69759040e-01
C     6.113659969000000e+00   5.241699078761745e+00   3.891668400000000e+00  7.73299580e-01   8.30395460e-01  -1.04630630e-01
C     7.373192391500000e+00   4.568596463627197e+00   3.869551800000000e+00 -3.81276300e-01  -5.70851500e-01  -7.03835900e-01
C     8.594111870799999e+00   5.262757815627312e+00   3.747539400000000e+00  9.09339220e-01  -6.99533000e-03  -1.63612100e-02
C     9.824193557899999e+00   4.525740707049962e+00   3.503049900000000e+00 -1.40387400e-01   1.67055920e+00   7.45567130e-01
C     1.105848935970000e+01   5.240753383351086e+00   3.487443000000000e+00  3.51904630e-01   6.59247590e-01  -2.96519760e-01
C     1.353437110220000e+01   6.672888127712207e+00   3.599595000000000e+00  6.14603610e-01   3.13178200e-01   7.13186050e-01
C     4.908195645299999e+00   7.392629622627049e+00   3.821160900000000e+00 -9.60261300e-01  -4.00157820e-01  -8.34729140e-01
C     6.125355753099999e+00   6.685375662028263e+00   3.882980700000000e+00  3.51075070e-01  -8.24108240e-01   2.43648330e-01
C     7.374054106199999e+00   7.377876859610857e+00   3.889060800000000e+00 -2.17199860e-01   5.66390060e-01   3.99947300e-02
C     8.604483062500000e+00   6.686314782400854e+00   3.850637100000000e+00  8.60413540e-01  -3.53546520e-01  -5.28974390e-01
C     9.855420276499999e+00   7.403297749980132e+00   3.750972000000000e+00 -8.38231160e-01  -5.73105630e-01   1.30366670e-01
C     1.107613698490000e+01   6.673107494891438e+00   3.569417100000000e+00 -1.83061760e-01   7.31082280e-01   4.75894400e-01
C     1.231075792020000e+01   7.428164458569254e+00   3.587093400000000e+00  7.12871200e-02  -2.94261668e+00  -1.06868750e-01
