32
Lattice="9.86 0 0 4.93 8.53901048131456 0 0 0 30 " PBC="1 1 1" Properties=species:S:1:pos:R:3:force:R:3 Energy="-257.30414808"
C     5.046541255999999e+00   6.711837628555259e+00  -3.875069999999994e-01  1.45308950e-01  -1.56020020e-01  -3.47767410e-01
C     6.273835471800000e+00   7.404619503412331e+00  -3.284372999999974e-01  9.10379720e-01   8.36287960e-01   2.28980110e-01
C     7.542173219400000e+00   6.706785608394872e+00  -3.092106000000001e-01 -1.41229400e+00  -4.67522300e-02  -3.12347620e-01
C     8.767647082000000e+00   7.415446456360343e+00  -3.509534999999993e-01  2.95270830e-01   1.10744150e-01   1.42885570e-01
C     9.999762344799999e+00   6.711619713007810e+00  -3.811077000000012e-01  1.10735697e+00   7.88519790e-01  -1.62709960e-01
C     1.126831158940000e+01   7.417791439418361e+00  -4.461183000000020e-01 -1.18566849e+00   1.40394610e-01  -6.38410100e-02
C     1.250298103590000e+01   6.717516155914564e+00  -4.983681000000004e-01 -2.40325275e+00  -1.46173692e+00   1.80870040e-01
C     1.367094994880000e+01   7.434424919492772e+00  -4.767177000000018e-01  2.39183722e+00  -8.02783150e-01   4.14332400e-01
C     1.339372392100000e+00   3.055364687375000e-01  -2.619255000000003e-01  1.13071778e+00  -3.98740600e-01   9.12078400e-02
C     2.613225281400000e+00   1.001228694536470e+00  -2.386401000000014e-01 -8.93911220e-01  -4.86641050e-01  -2.35423460e-01
C     3.868488028100000e+00   3.031544263739992e-01  -3.343245000000010e-01 -2.24674474e+00  -5.23588190e-01   2.78297090e-01
C     5.049322712700000e+00   1.007523055331593e+00  -3.548793000000003e-01  2.68098572e+00   8.54022180e-01  -1.49988770e-01
C     6.318367471599999e+00   3.042925910808784e-01  -4.253757000000000e-01 -8.89050830e-01  -4.19901560e-01   2.15319140e-01
C     7.546131023399999e+00   9.917488558817841e-01  -3.798771000000016e-01 -2.52690980e-01   8.67377760e-01   2.18101320e-01
C     8.764155360199998e+00   2.767776791715936e-01  -3.838028999999992e-01  1.95555720e-01   2.15668945e+00   2.68401790e-01
C     9.981925210400000e+00   1.035784020586515e+00  -2.395880999999989e-01  4.95882260e-01  -1.01360011e+00  -3.53250860e-01
C     2.575345725000000e+00   2.405357277715392e+00  -2.373729000000004e-01  2.15777824e+00   1.10122604e+00  -5.80068640e-01
C     3.852278483900000e+00   3.136949552934797e+00  -3.816509999999980e-01 -1.29054932e+00  -2.59107290e-01   5.75191700e-01
C     5.095409831700000e+00   2.449377157591364e+00  -3.448743000000007e-01 -1.07880964e+00  -8.71829290e-01  -3.20590250e-01
C     6.318016504899999e+00   3.156151055020964e+00  -3.539792999999989e-01  2.67457730e-01  -5.43718730e-01   2.19941610e-01
C     7.553982344200000e+00   2.416522204698202e+00  -2.763287999999982e-01  5.09051000e-03   7.97930390e-01  -4.65995000e-01
C     8.787304273800000e+00   3.146798191452115e+00  -2.289843000000005e-01 -8.58751390e-01   8.60308550e-01  -2.13565150e-01
C     1.003292172200000e+01   2.460124783132016e+00  -1.932872999999979e-01 -2.53785019e+00  -1.21997685e+00  -6.47680300e-02
C     1.122136181900000e+01   3.136073877410074e+00  -2.187489000000014e-01  1.68910381e+00   1.30019717e+00  -1.42468690e-01
C     3.815424663300000e+00   4.557015686834011e+00  -4.517582999999981e-01  1.42569850e+00  -5.42587900e-02   3.19002930e-01
C     5.050226825399999e+00   5.298810030214501e+00  -4.078589999999984e-01 -2.26673290e-01  -9.43227040e-01  -2.67447910e-01
C     6.282369351100000e+00   4.576597858007375e+00  -3.784559999999999e-01 -4.95401720e-01  -1.82691140e-01   2.83661990e-01
C     7.492268604200000e+00   5.270874486648971e+00  -3.240624000000025e-01  1.43789391e+00   1.26692862e+00  -3.70094600e-02
C     8.728012544200000e+00   4.591609523821320e+00  -2.930144999999982e-01  1.99600759e+00  -7.65931700e-01   2.06090510e-01
C     1.001561199900000e+01   5.321946308329851e+00  -3.295305000000006e-01 -1.28566222e+00  -2.17961495e+00   1.38583680e-01
C     1.124374244140000e+01   4.569897894214453e+00  -3.161172000000008e-01 -5.19290920e-01   3.98139590e-01  -1.92049700e-01
C     1.247595314900000e+01   5.266713426842068e+00  -4.470975000000017e-01 -7.55723750e-01   8.51353340e-01   1.28424230e-01
