32
Lattice="9.86 0 0 4.93 8.53901048131456 0 0 0 30 " PBC="1 1 1" Properties=species:S:1:pos:R:3:force:R:3 Energy="-257.28965587"
C     9.788266232200000e+00   1.208671316412560e-01  -7.456770000000290e-02  2.01260971e+00   3.22758500e-02   2.24237120e-01
C     1.198125624300000e+00   8.449537874289511e-01  -5.941860000000077e-02 -8.74937040e-01  -2.55877160e-01   2.31180430e-01
C     2.421588391999999e+00   1.071053207912688e-01  -9.615390000000090e-02 -5.57695690e-01   8.64115730e-01   1.47328700e-02
C     3.637762253300000e+00   8.424940400700824e-01  -3.137459999999948e-02  4.27373980e-01  -1.62302487e+00  -5.45753970e-01
C     4.879110075000000e+00   1.266598255706784e-01  -1.073577000000014e-01  5.54264830e-01   6.47257940e-01   5.68830200e-02
C     6.128506023100000e+00   8.443722808152632e-01  -1.304844000000003e-01 -3.96009590e-01  -5.76984820e-01   6.77024350e-01
C     7.366890766899999e+00   1.195908057448104e-01  -3.494669999999900e-02 -1.55936732e+00  -6.68436030e-01  -4.84564580e-01
C     8.573621607600000e+00   8.162761184626048e-01  -2.896050000000017e-02  6.95378000e-01   1.27737751e+00  -2.43854420e-01
C     1.106124409580000e+01   2.272979559947096e+00   5.357729999999999e-02  1.50552000e-02  -1.38544330e-01   4.91557720e-01
C     2.459470659900000e+00   2.982280235967833e+00   1.552662000000000e-01 -2.17256060e+00  -9.37104540e-01  -6.55147240e-01
C     3.640668488300000e+00   2.226803409144714e+00   4.247130000000000e-02  1.42082040e+00   1.86510775e+00   2.59464540e-01
C     4.899283191299999e+00   2.943468042413298e+00  -8.249999999989654e-04 -9.14154150e-01   1.05770970e+00  -1.80400840e-01
C     6.109450340600000e+00   2.267971942641205e+00  -1.123221000000001e-01  1.74635853e+00  -5.22398200e-01   3.16393730e-01
C     7.383672930600000e+00   2.985090851267325e+00  -8.430840000000117e-02 -1.53957264e+00  -4.88740250e-01  -2.50512610e-01
C     8.610015261999999e+00   2.264514838858272e+00  -3.856439999999850e-02 -9.49740560e-01  -3.29512450e-01   2.95521330e-01
C     9.807659274599999e+00   2.984534278564238e+00   8.050350000000001e-02  1.40965303e+00   4.15868140e-01  -5.89716280e-01
C     1.226317947620000e+01   4.386864546136072e+00   1.492746000000000e-01  1.20408569e+00   6.23156760e-01  -1.33880960e-01
C     3.653500292300000e+00   5.080766141437386e+00   5.153130000000000e-02 -2.93982260e-01   8.49966110e-01   4.93085100e-02
C     4.898061438699999e+00   4.395692089780191e+00   5.022599999999999e-03 -1.68019948e+00  -1.32232870e+00  -1.24030770e-01
C     6.068370770500000e+00   5.121144218733743e+00  -1.184835000000000e-01  3.07368578e+00  -8.53040100e-01   1.41313980e-01
C     7.331405859399999e+00   4.393371442902041e+00  -1.357830000000000e-01  8.11782310e-01   5.80677980e-01   1.20347760e-01
C     8.598653238899999e+00   5.108037691547992e+00  -1.351049999999994e-01 -1.35474722e+00   3.69726310e-01   1.11284350e-01
C     9.829870600800000e+00   4.442793869318606e+00   4.255890000000000e-02 -1.61142616e+00  -2.60686783e+00  -1.41489980e-01
C     1.103180400920000e+01   5.108881772733939e+00   9.755910000000000e-02  1.27652474e+00   4.08845460e-01  -1.98104170e-01
C     1.352696555200000e+01   6.514254660520006e+00  -3.430859999999925e-02 -1.96535580e-01  -1.48431770e-01   5.03448920e-01
C     4.912099663000000e+00   7.238140905731736e+00  -7.078559999999712e-02 -9.33395760e-01  -1.50006360e-01  -9.45154300e-02
C     6.153554071300000e+00   6.524906649143283e+00  -1.128420000000006e-01 -2.44265715e+00   3.02551730e-01  -3.11557640e-01
C     7.340455170199999e+00   7.233274694439394e+00  -1.886441999999988e-01  1.39660888e+00   1.52193520e-01   1.06782350e-01
C     8.573069644799999e+00   6.524369972334615e+00  -2.206383000000010e-01  8.33509240e-01   4.62162210e-01   8.30392800e-01
C     9.814167022499998e+00   7.253108681031814e+00  -1.067610000000023e-01 -4.98448500e-01  -8.44087670e-01  -2.89390090e-01
C     1.103477241150000e+01   6.518203696696692e+00  -4.534800000001837e-03  2.81537960e-01   7.09873510e-01  -2.79570500e-02
C     1.227190276610000e+01   7.214071057600607e+00  -5.977200000000238e-03  8.16181400e-01   8.46518880e-01  -1.58997750e-01
