32
Lattice="9.86 0 0 4.93 8.53901048131456 0 0 0 30 " PBC="1 1 1" Properties=species:S:1:pos:R:3:force:R:3 Energy="-257.52075067"
C     1.204810704300000e+00   3.062540871782392e-01   3.534971700000000e+00  1.23794795e+00  -4.60527980e-01  -3.10335550e-01
C     2.453866088000000e+00   1.018304324573536e+00   3.457935000000000e+00 -1.36265437e+00  -4.94499400e-01   3.16525730e-01
C     3.670053112400000e+00   3.138426204017104e-01   3.452165700000000e+00  2.01234300e-02  -5.56644430e-01   3.52846110e-01
C     4.891842983200000e+00   1.017511050499944e+00   3.488055300000000e+00  1.10689774e+00  -3.31236900e-01  -1.48466680e-01
C     6.132008837400000e+00   2.996449784568240e-01   3.500409900000000e+00  4.37799340e-01  -6.76720200e-02  -1.37328050e-01
C     7.360823761000000e+00   1.025710549923259e+00   3.549328200000000e+00  5.49044650e-01  -3.90752140e-01  -6.19878910e-01
C     8.617345777600001e+00   2.786168112487760e-01   3.520705200000000e+00 -1.05935043e+00   2.03409416e+00   3.96801590e-01
C     9.859258429399999e+00   1.012220621166955e+00   3.554297400000000e+00 -1.16626275e+00  -9.46608440e-01  -2.25150040e-01
C     2.415196992100000e+00   2.421927142161727e+00   3.447957900000000e+00  1.02233081e+00   1.17002213e+00   5.07325200e-02
C     3.664719000300000e+00   3.130537609965366e+00   3.480485400000000e+00  2.46655770e-01   3.45527180e-01  -7.42479570e-01
C     4.927332672800000e+00   2.435049295736658e+00   3.488866800000000e+00 -1.82028612e+00   1.45001910e-01   2.47984650e-01
C     6.119923879100000e+00   3.170077327212796e+00   3.522032100000000e+00  1.05984230e+00  -6.36144160e-01   1.59151600e-02
C     7.354399576600000e+00   2.458392901026462e+00   3.500292600000000e+00  7.25900680e-01  -5.11484690e-01   6.24611490e-01
C     8.619673674300000e+00   3.148499076949626e+00   3.522032700000000e+00 -8.73526450e-01  -9.73243140e-01  -7.15197500e-02
C     9.845446590700000e+00   2.410280956548265e+00   3.518215500000000e+00 -4.85996000e-01   1.69482119e+00  -1.55512630e-01
C     1.104994054250000e+01   3.162985166668527e+00   3.438504000000000e+00  6.78319400e-01  -1.26914034e+00   3.83413010e-01
C     3.682932195100000e+00   4.563218424046683e+00   3.386045400000000e+00  1.22252200e-02  -6.78221710e-01   9.91014400e-01
C     4.914627619100000e+00   5.269807195729077e+00   3.486882000000000e+00 -6.94769550e-01   1.21900686e+00  -3.92804000e-02
C     6.140098178600000e+00   4.586126112851483e+00   3.561832500000000e+00 -1.06092496e+00  -1.25979003e+00  -7.00734340e-01
C     7.348417120199999e+00   5.235372184336694e+00   3.489462000000000e+00  1.65238775e+00   2.76191950e+00   2.57755060e-01
C     8.595741334400000e+00   4.554672838528613e+00   3.507548700000000e+00  5.71099630e-01   2.62159180e-01  -3.13834280e-01
C     9.830367150400001e+00   5.268146443580821e+00   3.446027100000000e+00  1.38796450e-01   1.43728608e+00  -1.03379800e-01
C     1.107542114890000e+01   4.572104801473009e+00   3.429891000000000e+00 -4.86673420e-01   1.95871010e-01  -1.39761880e-01
C     1.231910145220000e+01   5.272679121123814e+00   3.406318800000000e+00 -3.68429430e-01  -1.19737500e-01  -2.41028440e-01
C     4.897484973799999e+00   6.704049538656871e+00   3.513248400000000e+00 -9.92096000e-03  -4.40431300e-02  -1.06258290e-01
C     6.139036601699999e+00   7.417897579318626e+00   3.522715200000000e+00 -3.08489680e-01  -2.20775660e-01  -1.52787400e-01
C     7.368668376999999e+00   6.699167444805035e+00   3.455438700000000e+00 -4.54344300e-02  -7.19574030e-01   6.45113570e-01
C     8.599121736799999e+00   7.419575238707631e+00   3.491960100000000e+00  1.23675470e-01   1.80433740e-01  -9.10821750e-01
C     9.840884417999998e+00   6.732595792251929e+00   3.401095200000000e+00 -8.51218600e-02  -1.81001988e+00   6.25216650e-01
C     1.109401755260000e+01   7.403974466560672e+00   3.417473700000000e+00 -1.02429342e+00   6.70511960e-01   2.25418810e-01
C     1.231362387710000e+01   6.683611844023514e+00   3.423033300000000e+00 -6.60652910e-01   5.33644590e-01   8.15925200e-02
C     1.350352024680000e+01   7.425818621610189e+00   3.494217300000000e+00  1.92974016e+00  -1.16018392e+00  -9.63834900e-02
