32
Lattice="9.86 0 0 4.93 8.53901048131456 0 0 0 30 " PBC="1 1 1" Properties=species:S:1:pos:R:3:force:R:3 Energy="-257.20563558"
C     1.266391383600000e+00   1.345326224530288e-01   3.388593300000000e+00 -3.52918760e-01   1.82011254e+00   2.45456790e-01
C     2.490151085200000e+00   8.742156954923392e-01   3.412442700000000e+00  4.21721470e-01  -2.76355202e+00  -1.38710070e-01
C     3.730064917800000e+00   1.421415639115472e-01   3.347754300000000e+00 -2.43834480e-01   7.02974300e-02   2.95413080e-01
C     4.941436712600000e+00   8.470969936693264e-01   3.409710600000000e+00  7.88969360e-01   8.21730800e-01   3.54315640e-01
C     6.174975808699999e+00   1.200541324534552e-01   3.437355900000000e+00  1.77020510e-01   2.34312664e+00  -6.49667710e-01
C     7.421920758000000e+00   8.450339687373584e-01   3.396228600000000e+00  5.01943760e-01  -5.25621240e-01   1.24592920e-01
C     8.662179345500000e+00   1.548714353450264e-01   3.408456900000000e+00  7.47670300e-02  -2.28279380e-01   3.70475700e-02
C     9.893457937999999e+00   8.847265342723808e-01   3.432843300000000e+00 -2.48410580e-01  -8.50869010e-01  -1.59604220e-01
C     2.506580458100000e+00   2.236952023100194e+00   3.532917600000000e+00  4.43786340e-01   2.84950072e+00  -4.39243880e-01
C     3.745424382100000e+00   2.988425761810289e+00   3.533614500000000e+00 -5.00213280e-01   7.54807520e-01   1.41575310e-01
C     4.959001513800000e+00   2.294908934321203e+00   3.499863000000000e+00  1.35595002e+00  -1.08218310e+00  -3.97837890e-01
C     6.246761785200000e+00   2.970760513099579e+00   3.468665400000000e+00 -1.51311801e+00   1.31754030e-01  -5.22347930e-01
C     7.482714313500001e+00   2.254110652319126e+00   3.378729900000000e+00 -2.08737248e+00   1.18712673e+00   1.02220254e+00
C     8.641066719099999e+00   3.044557630321407e+00   3.504394800000000e+00  1.80151376e+00  -1.97883228e+00  -1.10662498e+00
C     9.879262939699998e+00   2.304230032771066e+00   3.471084000000000e+00  1.01500850e+00   3.05369610e-01   2.93087020e-01
C     1.115750244440000e+01   2.975211045361755e+00   3.506343000000000e+00 -1.60963077e+00   4.96953340e-01  -2.41686000e-03
C     3.752759482600000e+00   4.445402707800454e+00   3.541348800000000e+00 -1.78375892e+00  -1.15203691e+00  -1.41996710e-01
C     4.957565109000000e+00   5.135172190540392e+00   3.452856600000000e+00  1.52568029e+00  -5.32823000e-03   1.77593730e-01
C     6.219203479599999e+00   4.389628794608657e+00   3.415756500000000e+00 -3.63934680e-01   8.74621410e-01   4.26564050e-01
C     7.445875529399999e+00   5.122391682774767e+00   3.407437200000000e+00 -1.39220829e+00   1.86026350e+00  -4.48115760e-01
C     8.658692208600000e+00   4.447757937671049e+00   3.446542500000000e+00  8.11025270e-01  -4.27693000e-03   7.69834130e-01
C     9.909671376900000e+00   5.146402440953374e+00   3.543654900000000e+00 -4.85986880e-01  -7.07424860e-01  -9.36056880e-01
C     1.112355638710000e+01   4.409666351210920e+00   3.489982800000000e+00  7.24373450e-01   1.76333730e-01   9.88130960e-01
C     1.234272039200000e+01   5.150716092877555e+00   3.552019800000000e+00  8.34220500e-01   2.33567300e-02  -5.15841040e-01
C     4.955881464700000e+00   6.569325556978985e+00   3.441118200000000e+00  7.84907960e-01  -9.90521530e-01  -2.54027390e-01
C     6.205410522799999e+00   7.271274828097280e+00   3.389105700000000e+00 -1.02229964e+00   1.19265690e-01  -3.02937910e-01
C     7.419191066300000e+00   6.592842674961743e+00   3.331750800000000e+00  1.48205916e+00  -2.48946888e+00   5.03054510e-01
C     8.689848132400000e+00   7.252298926667995e+00   3.338234700000000e+00 -1.61405906e+00   8.74449010e-01   3.55680890e-01
C     9.908153676400000e+00   6.561164226932515e+00   3.480184200000000e+00 -7.71197940e-01  -7.68397450e-01  -5.05791720e-01
C     1.109935905970000e+01   7.277758242584430e+00   3.430227000000000e+00  1.36428806e+00  -5.87616500e-01   5.84449400e-01
C     1.233798926820000e+01   6.587786983026850e+00   3.486066300000000e+00  6.62141060e-01  -1.34959598e+00  -1.27637780e-01
C     1.359791614000000e+01   7.263101628826242e+00   3.427014600000000e+00 -7.80432720e-01   7.74934870e-01   3.29860190e-01
