32
Lattice="9.86 0 0 4.93 8.53901048131456 0 0 0 30 " PBC="1 1 1" Properties=species:S:1:pos:R:3:force:R:3 Energy="-256.70503339"
C     1.169831269700000e+00   3.829402078157656e-01   3.344667000000000e+00  2.41140002e+00  -2.70012006e+00   9.83984080e-01
C     2.449243966500000e+00   1.011248113263388e+00   3.517001700000000e+00 -1.79220218e+00   1.78630169e+00  -9.97828480e-01
C     3.666815630700000e+00   3.230641539893768e-01   3.482422800000000e+00  5.03341270e-01   2.88669210e-01   5.96115030e-01
C     4.901916353599999e+00   1.038314812512578e+00   3.633978000000000e+00 -2.50178710e-01  -4.20900150e-01  -1.25979538e+00
C     6.127536686499999e+00   3.541401748292408e-01   3.532452900000000e+00  6.35219050e-01  -1.49049529e+00   9.92210140e-01
C     7.357690696700000e+00   1.059242817127695e+00   3.425459100000000e+00 -2.79773850e-01   3.06202220e-01   3.79926980e-01
C     8.587796836599999e+00   3.231486048030240e-01   3.437596800000000e+00 -8.73988700e-02   1.23978661e+00  -7.91083600e-02
C     9.837651274700001e+00   1.057787086621065e+00   3.401097600000000e+00 -1.68334293e+00  -3.00899070e-01   1.17565620e-01
C     2.380946014300000e+00   2.446369718100308e+00   3.600670800000000e+00  2.07978517e+00   6.63543900e-01   7.70627690e-01
C     3.635874704200000e+00   3.170313601632778e+00   3.641378100000000e+00  2.41480820e-01  -2.34252020e-01   5.83101670e-01
C     4.923962229000000e+00   2.431793541820844e+00   3.598621500000000e+00 -2.76177081e+00   2.14008675e+00   1.32528140e-01
C     6.095455105899999e+00   3.192691530227399e+00   3.523255800000000e+00  1.80042459e+00  -1.75260630e-01  -1.11480290e-01
C     7.331571704600000e+00   2.495479019002570e+00   3.434405100000000e+00  1.55619312e+00  -6.31583360e-01  -6.72921200e-02
C     8.631528401599999e+00   3.171749009294465e+00   3.471094500000000e+00 -2.42476245e+00   5.66217800e-02   7.89085010e-01
C     9.832299759700000e+00   2.454489975506369e+00   3.542187300000000e+00 -4.77170360e-01   7.91199770e-01  -1.27963620e-01
C     1.102349942420000e+01   3.188632853156151e+00   3.725193300000000e+00  1.05519653e+00  -6.99156680e-01  -6.53405560e-01
C     3.635939040700000e+00   4.608299959095633e+00   3.770616599999999e+00  1.83002055e+00  -1.60448650e-01  -1.13709867e+00
C     4.931320944199999e+00   5.316513619082265e+00   3.601590900000000e+00 -2.21183489e+00   2.45008840e-01  -4.76543600e-02
C     6.143510034399999e+00   4.621785703736802e+00   3.506265900000000e+00 -6.33299690e-01  -6.44895830e-01   2.81800300e-01
C     7.366615525000000e+00   5.318330208171781e+00   3.491772300000000e+00  7.99062830e-01  -3.33656200e-02   2.86114260e-01
C     8.604748986699999e+00   4.577079287418237e+00   3.625515000000000e+00 -5.37504310e-01   1.13477544e+00  -7.84623110e-01
C     9.800174745800000e+00   5.323609536791145e+00   3.755169000000000e+00  7.73222040e-01   2.93871000e-03   1.43471600e-02
C     1.104015183030000e+01   4.603122586261399e+00   3.823934100000000e+00  2.84002140e-01   1.04733402e+00  -1.90546950e-01
C     1.229170282930000e+01   5.357872230952041e+00   3.801543300000000e+00 -9.23195790e-01  -2.66016555e+00  -2.06512120e-01
C     4.900264507799999e+00   6.731659575142903e+00   3.467646300000000e+00 -5.13369450e-01   1.03938986e+00   7.83838330e-01
C     6.130959832000000e+00   7.476802491483125e+00   3.391047900000000e+00 -3.41650190e-01  -5.88752430e-01  -2.80287090e-01
C     7.386082517400000e+00   6.751160113376079e+00   3.439188000000000e+00 -1.39167845e+00  -3.00392020e-01  -3.61193120e-01
C     8.607624359899999e+00   7.448997338607625e+00   3.432196800000000e+00 -2.48985500e-02   2.78899200e-01   1.18186113e+00
C     9.804689491900000e+00   6.762977676929874e+00   3.703539000000000e+00  1.04513095e+00  -9.70420670e-01  -4.06579470e-01
C     1.106861316400000e+01   7.449943717139123e+00   3.727111800000000e+00 -1.65282056e+00   1.15220286e+00  -1.32867298e+00
C     1.226320013290000e+01   6.736070742566765e+00   3.640949400000000e+00  8.67991270e-01   1.14521017e+00   1.10286411e+00
C     1.347847486080000e+01   7.469081518207109e+00   3.564366300000000e+00  2.10438168e+00  -1.30706299e+00  -9.55927970e-01
