32
Lattice="9.86 0 0 4.93 8.53901048131456 0 0 0 30 " PBC="1 1 1" Properties=species:S:1:pos:R:3:force:R:3 Energy="-256.88323407"
C     1.276368865500000e+00   6.198842569992071e-01   3.381994200000000e+00  8.93634200e-02  -1.16660359e+00  -2.26681800e-02
C     2.517807547100000e+00   1.316332782956391e+00   3.471124800000000e+00  2.56882570e-01  -1.06254214e+00  -4.98818750e-01
C     3.753172665900000e+00   6.149852559066216e-01   3.421829100000000e+00  8.43164210e-01  -8.16528390e-01   4.91591400e-01
C     5.008754482200000e+00   1.316811906834424e+00   3.522261300000000e+00 -1.33915029e+00  -1.30825200e-02  -5.51336460e-01
C     6.237947290299999e+00   6.045213816842200e-01   3.480199800000000e+00 -1.90344875e+00  -2.04492790e-01  -2.50815790e-01
C     7.409137415900000e+00   1.337914448823753e+00   3.326862300000000e+00  1.97578807e+00  -1.84865088e+00   1.10966460e-01
C     8.665152431300001e+00   5.728392618804855e-01   3.323562900000000e+00 -7.04758810e-01   6.86961010e-01  -4.70103710e-01
C     9.881604739000000e+00   1.287408165806963e+00   3.306784500000000e+00  4.64383020e-01   3.78092520e-01   8.50101690e-01
C     2.539017935400000e+00   2.706526981883525e+00   3.547195200000000e+00 -1.72070949e+00   1.08232294e+00   5.13163800e-02
C     3.719801495900000e+00   3.460998681783042e+00   3.538151700000000e+00  1.50264896e+00  -7.49142410e-01   3.69634690e-01
C     4.968730277200000e+00   2.731995776101592e+00   3.502147800000000e+00  5.36894240e-01   8.66092190e-01  -2.25402690e-01
C     6.208654857200000e+00   3.441676352698584e+00   3.394632300000000e+00 -1.03146184e+00   1.93991121e+00  -4.69797490e-01
C     7.410486904800000e+00   2.738941407226024e+00   3.257892600000000e+00  9.44189630e-01   1.46001460e-01   1.31062046e+00
C     8.670511144099999e+00   3.412341692265906e+00   3.421902000000000e+00 -1.28354950e+00   1.56447620e+00  -1.19476813e+00
C     9.858076412599999e+00   2.708279869954859e+00   3.443916000000000e+00  2.55584904e+00  -5.22858490e-01   6.52695000e-03
C     1.114496229920000e+01   3.385251596128001e+00   3.576460200000000e+00 -1.06356818e+00   1.47194591e+00  -4.81252470e-01
C     3.715097437800000e+00   4.865504091494446e+00   3.598125300000000e+00  5.83139770e-01   1.23265821e+00  -5.36002930e-01
C     4.969276521200000e+00   5.618510582585701e+00   3.460811100000000e+00 -2.06661720e-01  -2.31551972e+00   8.69402800e-02
C     6.210775398099999e+00   4.927847150838612e+00   3.346106100000000e+00 -4.96037570e-01  -2.29861770e+00   9.70796940e-01
C     7.445100484099999e+00   5.610115454432289e+00   3.387416700000000e+00  7.67258210e-01  -1.31837455e+00  -8.49309120e-01
C     8.692947672699999e+00   4.850138910646629e+00   3.399850500000000e+00 -1.84645602e+00  -2.93054090e-01   1.00928799e+00
C     9.882310714999999e+00   5.541662903869893e+00   3.602386200000000e+00  1.06831615e+00   1.28507550e-01  -8.35160070e-01
C     1.113025645430000e+01   4.845418716433495e+00   3.590972100000000e+00 -4.33478020e-01  -1.36646999e+00   9.45952740e-01
C     1.232939001710000e+01   5.569239894385367e+00   3.659011200000000e+00  1.05888380e+00   1.05746143e+00  -8.09084450e-01
C     4.997429335500000e+00   6.996848877801983e+00   3.418430700000000e+00 -7.97432890e-01   1.41558316e+00  -2.03307740e-01
C     6.227792673499999e+00   7.713669604182141e+00   3.396462300000000e+00 -2.18771130e-01   8.01938090e-01  -6.67728050e-01
C     7.458326145799999e+00   7.008763615295042e+00   3.329548200000000e+00  3.65369910e-01   9.59345660e-01   6.35635110e-01
C     8.708577103800000e+00   7.720284690210893e+00   3.363601800000000e+00 -9.46103180e-01  -4.06562560e-01   9.07358790e-01
C     9.892644833100000e+00   6.950266526271068e+00   3.579732000000000e+00  3.11703240e-01   2.25262867e+00  -8.44441070e-01
C     1.111777122930000e+01   7.715113380074100e+00   3.540532500000000e+00  1.20202660e-01  -1.42187820e-01   2.37779460e-01
C     1.233289066220000e+01   7.033496517589942e+00   3.538787400000000e+00  1.60055177e+00  -2.04358500e+00  -8.66933600e-02
C     1.360890047580000e+01   7.693081964524756e+00   3.360842700000000e+00 -1.05300127e+00   5.84346400e-01   1.01218113e+00
