64
Lattice="9.86 0 0 4.93 8.53901048131456 0 0 0 30 " PBC="1 1 1" Properties=species:S:1:pos:R:3:force:R:3 Energy="-513.02447996"
C     4.932778498699999e+00   8.380823005325171e+00  -6.235140000000001e-01  2.98794440e-01  -4.74930070e-01   4.12980990e-01
C     1.241484333400000e+00   5.403193797585584e-01  -6.113330999999995e-01  6.71958450e-01  -1.86843598e+00  -1.14856270e-01
C     9.833934744900001e+00   1.978460549481416e-01   3.812918100000001e+00 -8.82139940e-01  -1.34727897e+00   3.58301250e-01
C     1.167431690800000e+00   9.308993548606752e-01   3.903582900000000e+00  2.16688994e+00  -1.83313760e+00  -4.79966710e-01
C     7.409874056500000e+00   8.339732262214152e+00  -5.833197000000006e-01  8.99546390e-01   2.29391203e+00   1.58018200e-02
C     3.713410046700000e+00   5.888905522203705e-01  -4.744019999999978e-01  1.05291080e-01  -2.81614653e+00  -3.04885990e-01
C     2.425406874200000e+00   2.016733248353824e-01   3.817230600000000e+00 -7.85237730e-01  -2.30914950e+00  -8.63423200e-02
C     3.698506952500000e+00   7.806775815022183e-01   3.866491500000000e+00 -6.37081640e-01   3.74383797e+00  -5.92764500e-01
C     9.910217719499999e+00   8.395333858174464e+00  -4.569288000000000e-01 -2.08474103e+00  -7.29187220e-01   6.41941600e-02
C     6.157041060300000e+00   5.749808457088696e-01  -5.055818999999993e-01  1.65538956e+00  -6.64461390e-01   1.73922640e-01
C     4.949037540100000e+00   1.418924809758456e-01   3.744845400000000e+00 -4.81230440e-01   7.74956550e-01   4.94337390e-01
C     6.170915362100000e+00   9.070433235519656e-01   3.822014400000000e+00 -1.38974693e+00  -7.22717790e-01  -5.44122080e-01
C     1.232012482160000e+01   8.415736542864851e+00  -4.383444000000019e-01  1.51438605e+00   7.94751150e-01  -3.21311460e-01
C     8.655082955599999e+00   5.707353350883183e-01  -5.666370000000001e-01 -1.32129902e+00   5.74445900e-02  -6.41325000e-03
C     7.372705406100000e+00   1.627795837307640e-01   3.867504900000000e+00  7.21695040e-01  -1.03071066e+00   8.27017000e-02
C     8.598056807499999e+00   8.511239056215896e-01   3.935491800000000e+00  3.97490040e-01   2.61358195e+00  -2.79343940e-01
C     1.265282084300000e+00   1.918252755097879e+00  -5.104118999999976e-01 -3.66652670e-01   2.23459143e+00   1.40210728e+00
C     2.462394642900000e+00   2.645516862075287e+00  -2.575545000000012e-01  1.37846586e+00   1.70043248e+00  -7.21332690e-01
C     1.108612506630000e+01   2.304498840820977e+00   4.003952700000000e+00 -9.86654080e-01   1.49345877e+00   2.26227730e-01
C     2.481186816900000e+00   2.961872000920633e+00   4.071047399999999e+00 -1.26687806e+00   1.45753028e+00  -3.62860820e-01
C     3.714489223700000e+00   1.981389344685951e+00  -3.698420999999996e-01  6.12024300e-01  -4.69876500e-02  -8.19822300e-02
C     5.002959858800000e+00   2.658364913413809e+00  -4.424270999999997e-01 -2.43970426e+00   3.25308410e-01   3.57859070e-01
C     3.652420622300000e+00   2.248695041092500e+00   3.897694200000000e+00  2.43507328e+00   2.39784300e-02  -3.78728560e-01
C     4.874425342499999e+00   3.049530066904121e+00   3.682399200000000e+00 -3.44857430e-01  -2.92235134e+00   1.41032569e+00
C     6.213709931299999e+00   1.967112802284230e+00  -5.921430000000001e-01 -1.54404729e+00   4.63759790e-01   5.30582710e-01
C     7.395536186799999e+00   2.703047847453554e+00  -5.969552999999976e-01  1.77055634e+00  -1.66725587e+00  -1.08211200e-02
C     6.115857565800000e+00   2.351962332843323e+00   3.753260400000000e+00 -1.36795900e-01  -2.50556933e+00  -5.87740800e-02
C     7.338927757600000e+00   2.982976079931848e+00   3.833675700000000e+00  2.25742489e+00   2.24561923e+00   6.87156930e-01
C     8.632261344700000e+00   1.997063381542830e+00  -5.672031000000004e-01  7.96930040e-01  -1.30872376e+00  -8.32531800e-02
C     9.887634128999998e+00   2.643575005702030e+00  -4.420929000000022e-01 -1.13538245e+00  -1.62914130e-01  -3.74171620e-01
C     8.624945076800000e+00   2.330201347755882e+00   3.987870600000000e+00 -8.78645620e-01  -1.39875748e+00  -9.68003140e-01
C     9.865799109699999e+00   3.053836289889185e+00   3.952954800000000e+00 -8.75553810e-01   6.28705650e-01   5.87520700e-01
C     2.502650607200000e+00   4.127779355118619e+00  -1.274706000000023e-01 -3.55841580e-01  -2.46879845e+00   2.89276100e-02
C     3.719764619500000e+00   4.850373904215039e+00  -1.944392999999991e-01  7.85559330e-01  -9.55550110e-01  -2.27475880e-01
C     1.234224666830000e+01   4.412897171216134e+00   4.098726600000000e+00 -2.14022810e+00   5.35648840e-01  -9.87540090e-01
C     3.648821229300000e+00   5.133735331246923e+00   3.943433700000000e+00  2.40716671e+00  -1.44800569e+00  -5.84584400e-01
C     4.960852482300000e+00   4.056770907939350e+00  -3.548214000000023e-01 -9.61676800e-02   2.49515052e+00  -5.31072660e-01
C     6.188319691799999e+00   4.777268446842091e+00  -5.627181000000014e-01 -4.42213240e-01   1.34606178e+00   4.40885830e-01
C     4.892130993799999e+00   4.415980351730147e+00   3.752122800000000e+00 -6.94989400e-02   2.12200039e+00   1.11372200e-02
C     6.143225228300000e+00   5.142833646913362e+00   3.682215600000000e+00 -9.98253060e-01  -1.12552200e-02   7.51873240e-01
C     7.424402224200000e+00   4.074139852986403e+00  -6.074006999999995e-01 -1.05171610e+00   1.88076918e+00   8.35786600e-02
C     8.647429672900000e+00   4.779721789943101e+00  -5.183070000000001e-01 -1.15677720e-01   9.90601550e-01   6.69403000e-02
C     7.352644299400000e+00   4.420795670520029e+00   3.836291400000000e+00  7.44918470e-01   8.67151640e-01  -1.11036176e+00
C     8.596071940199998e+00   5.184619038526928e+00   3.815666100000001e+00 -2.89689290e-01  -1.04996708e+00  -9.40570100e-02
C     9.794855226500001e+00   4.030586032302430e+00  -3.023480999999997e-01  4.52621776e+00   1.49922907e+00   2.92732920e-01
C     1.111776920800000e+01   4.754499004616961e+00  -8.143859999999847e-02 -2.50264961e+00   1.19116415e+00  -9.37060850e-01
C     9.846571863199999e+00   4.520327059795747e+00   3.909496800000000e+00  3.99955600e-01  -1.88232573e+00   1.43906000e-01
C     1.110102702660000e+01   5.219084704966932e+00   3.947914800000000e+00 -5.25389920e-01  -3.68127380e+00   3.45431390e-01
C     3.730420962400000e+00   6.299306760772626e+00  -2.789912999999977e-01 -2.01986400e-02  -1.47437629e+00  -3.40689100e-02
C     4.941754697600000e+00   6.938901871833131e+00  -5.233761000000001e-01  1.56230022e+00   1.25560950e+00  -4.22214200e-02
C     1.354229376010000e+01   6.512329540607291e+00   3.843438000000000e+00  1.37849560e-01   2.62492546e+00   1.96663000e-02
C     4.880374127000000e+00   7.307142258497682e+00   3.728287800000000e+00  7.81408470e-01  -1.10075688e+00   3.88397230e-01
C     6.190468678799999e+00   6.234232157366013e+00  -5.909690999999988e-01  3.36101540e-01  -8.05606560e-01  -2.21821080e-01
C     7.459144082100000e+00   6.947617212879543e+00  -6.587736000000000e-01 -8.66120560e-01  -1.38940408e+00   3.03781570e-01
C     6.111251023099999e+00   6.585960403295073e+00   3.696647100000000e+00 -1.37152390e-01  -6.07964340e-01  -3.72064740e-01
C     7.322459289799999e+00   7.287422950816008e+00   3.678650700000000e+00  1.25473835e+00   1.26524000e+00   4.96996940e-01
C     8.705078775800001e+00   6.222098565034352e+00  -5.845266000000002e-01 -1.21143692e+00  -9.96678200e-02   7.24759110e-01
C     9.917889045999999e+00   6.932905266333446e+00  -3.832590000000025e-01 -5.69978460e-01   2.04470870e-01  -5.94042200e-02
C     8.588248424600000e+00   6.590418193716157e+00   3.690784500000000e+00 -8.87461220e-01   3.00537940e-01   3.81372940e-01
C     9.820934334899999e+00   7.288213748576561e+00   3.731076900000000e+00  1.17132229e+00  -6.07737430e-01  -1.56557790e-01
C     1.108460046380000e+01   6.172683652947010e+00  -1.346978999999990e-01  2.58135837e+00   2.83369073e+00  -7.50198490e-01
C     1.240781172430000e+01   7.062740664511532e+00  -2.434994999999986e-01 -3.39221673e+00  -4.58144083e+00   5.50794050e-01
C     1.106436310960000e+01   6.581663146271013e+00   3.815310900000000e+00  1.11615218e+00   7.61518300e-01   2.99035260e-01
C     1.234416108590000e+01   7.219557201053797e+00   3.862728600000000e+00 -2.29407925e+00   3.00726357e+00  -2.26215230e-01
