64
Lattice="9.86 0 0 4.93 8.53901048131456 0 0 0 30 " PBC="1 1 1" Properties=species:S:1:pos:R:3:force:R:3 Energy="-514.8892521"
C     4.929945819299999e+00   8.302216290450483e+00  -3.738843000000003e-01  7.81242700e-01   1.19055725e+00  -1.36517490e-01
C     1.252791830700000e+00   4.714648125827640e-01  -3.847103999999995e-01 -2.09591530e-01   9.45325250e-01  -1.80073450e-01
C     9.860730034400000e+00   2.018615246263616e-01   3.845929800000000e+00 -3.08461730e-01  -4.59674290e-01  -3.21689690e-01
C     1.218663166200000e+00   9.170837482446640e-01   3.831420900000000e+00 -5.15106600e-01   1.80409545e+00  -2.61209650e-01
C     7.422089166799999e+00   8.287677173476501e+00  -3.589446000000009e-01 -1.89079400e+00   6.94446900e-02  -4.83745490e-01
C     3.678058052000000e+00   4.533222331862224e-01  -4.499205000000011e-01  1.72656588e+00   1.17604952e+00   1.00383066e+00
C     2.441878053500000e+00   2.265251755462696e-01   3.771455700000000e+00  1.36196930e-01   8.33362770e-01  -7.53399100e-02
C     3.684921992400000e+00   9.560284672418481e-01   3.791606400000000e+00 -1.76068500e-01  -1.77646881e+00   1.90770570e-01
C     9.852480369599999e+00   8.321822456243297e+00  -4.127586000000001e-01  1.12177867e+00   2.10186040e-01  -3.00040180e-01
C     6.172810601999999e+00   5.068307468976753e-01  -4.191071999999991e-01 -3.77001650e-01  -3.12810440e-01  -2.41850800e-01
C     4.900132975400000e+00   2.235547099705920e-01   3.853722600000000e+00  1.51194720e+00  -1.01822450e+00  -4.34143700e-01
C     6.165157713699999e+00   9.022519139914280e-01   3.819420900000000e+00 -1.13869104e+00   2.13223767e+00   1.56649280e-01
C     1.232882341220000e+01   8.298495416633822e+00  -4.299639000000006e-01 -4.78114160e-01   1.16583770e-01   3.64791300e-01
C     8.610156407899998e+00   4.751382948912600e-01  -3.686019000000016e-01  1.25056533e+00  -2.66230000e-03   3.41605100e-02
C     7.408959196400000e+00   2.620244892048784e-01   3.774154500000000e+00 -1.11840606e+00  -1.68317815e+00   5.60710130e-01
C     8.633929853900000e+00   9.274131330520056e-01   3.852924900000000e+00  6.07901110e-01   9.31554720e-01  -1.00218509e+00
C     1.271830406100000e+00   1.929080903507358e+00  -4.816667999999993e-01 -1.35750570e-01  -1.06415412e+00   1.33062592e+00
C     2.519100291700000e+00   2.641397814199945e+00  -3.895818000000020e-01 -1.88794738e+00  -1.63381413e+00  -6.64468840e-01
C     1.104669255990000e+01   2.389611427780377e+00   3.816676200000000e+00  2.90813750e-01  -1.80804149e+00   1.95821000e-03
C     2.433840526600000e+00   3.060748704262850e+00   3.848131200000000e+00  6.27968260e-01  -3.06606000e-01  -2.60402180e-01
C     3.729189941400000e+00   1.879409394155093e+00  -3.648851999999998e-01 -1.50660795e+00   9.90181050e-01  -6.71289590e-01
C     4.895078098499999e+00   2.637866079465417e+00  -3.970815000000023e-01  2.93137767e+00   6.62388300e-02  -3.27340700e-02
C     3.702535649900000e+00   2.340873830004309e+00   3.810321600000000e+00 -1.23457964e+00   1.03119317e+00  -6.80137000e-03
C     4.933425955600000e+00   3.033553492905936e+00   3.791526900000000e+00 -5.24767060e-01   1.01236422e+00   4.39205450e-01
C     6.170299457200001e+00   1.936973937844546e+00  -4.581225000000018e-01  2.63167530e-01  -1.70106000e-03   7.95725060e-01
C     7.437224266799999e+00   2.636075705138075e+00  -4.164798000000012e-01 -1.18448767e+00   3.56336750e-01   1.13350450e-01
C     6.154262216499999e+00   2.344426058363990e+00   3.839958900000000e+00  1.01673042e+00  -4.44012970e-01  -6.28066630e-01
C     7.409405607899999e+00   3.067735408027690e+00   3.785740200000000e+00 -1.48112182e+00   1.37397360e-01  -5.95935900e-02
C     8.661291896200000e+00   1.898517991807237e+00  -3.214044000000023e-01 -4.08626950e-01   9.82442420e-01  -1.12174100e+00
C     9.894220658299998e+00   2.641379028376889e+00  -4.198604999999986e-01  2.71567640e-01  -4.22161200e-01   4.78190760e-01
C     8.624374823699998e+00   2.367644140199738e+00   3.750254100000000e+00 -8.49595590e-01  -1.16762101e+00   6.34494540e-01
C     9.798214972199998e+00   3.095757793329802e+00   3.763334400000000e+00  2.47042035e+00  -1.01442490e-01   6.44117410e-01
C     2.420177228800000e+00   4.033042791007630e+00  -4.682712000000002e-01  2.68241192e+00   1.18513571e+00   3.20678830e-01
C     3.677153544900000e+00   4.747493002688437e+00  -5.154125999999977e-01  3.19870130e-01   8.44469840e-01   1.02723273e+00
C     1.229097949970000e+01   4.463918100394554e+00   3.874635300000000e+00  1.98550695e+00   9.14175650e-01   7.14732300e-02
C     3.713087378200000e+00   5.211722540911286e+00   3.882667800000000e+00 -2.32831440e+00  -1.07411963e+00  -8.11534320e-01
C     4.923820787300000e+00   4.084338420153191e+00  -3.844223999999983e-01 -5.50861410e-01  -1.41068343e+00  -4.82067660e-01
C     6.160890798700000e+00   4.789649926647987e+00  -3.564027000000003e-01  7.24167100e-01  -9.99727230e-01  -1.00858558e+00
C     4.916796079599999e+00   4.465016131752177e+00   3.800111700000000e+00  1.32795780e-01   5.85843970e-01   6.06670170e-01
C     6.142168778600000e+00   5.190500025824714e+00   3.833218800000000e+00  5.40302650e-01  -1.62462477e+00  -6.45503770e-01
C     7.408434989500000e+00   4.085916941630524e+00  -4.522961999999993e-01  5.60353890e-01  -1.30659173e+00   5.99858980e-01
C     8.675026925499999e+00   4.762878762551510e+00  -4.699562999999998e-01 -1.38813281e+00   6.43285660e-01   6.92703070e-01
C     7.387770648000000e+00   4.498817975517466e+00   3.774871200000000e+00  1.26144500e-02  -3.64753350e-01   4.30196660e-01
C     8.594254397100000e+00   5.247188723209233e+00   3.827246100000000e+00  7.05511980e-01  -1.09675938e+00  -4.91752810e-01
C     9.908929313300000e+00   4.083800462492952e+00  -3.746799000000003e-01 -1.96422758e+00  -1.77980840e+00  -8.01837840e-01
C     1.109074531440000e+01   4.783330119601634e+00  -4.119735000000020e-01  1.06274677e+00  -5.55291500e-02  -3.94960720e-01
C     9.849844890200000e+00   4.503995860692328e+00   3.865890000000000e+00 -1.91964204e+00   3.83541510e-01  -5.28089430e-01
C     1.107740468510000e+01   5.166605227408424e+00   3.891205800000000e+00  4.00894840e-01   9.92559120e-01   7.33241300e-02
C     3.715816281100000e+00   6.174831299472836e+00  -4.680272999999993e-01  9.29198990e-01  -1.86207280e-01  -8.21281300e-02
C     4.989870067900000e+00   6.912489260786710e+00  -4.319175000000008e-01 -2.20457545e+00  -1.48723285e+00   1.34783050e-01
C     1.351285086340000e+01   6.636794071973666e+00   3.802453500000000e+00  5.77163900e-01  -7.28766700e-02   2.45615850e-01
C     4.914303915300000e+00   7.298013117003409e+00   3.790668300000000e+00 -8.24394700e-02   7.81421960e-01   3.98910780e-01
C     6.208169350799999e+00   6.192625487241793e+00  -4.213359000000025e-01 -1.70535804e+00  -3.22332390e-01   5.43432240e-01
C     7.406716637999999e+00   6.864879239344527e+00  -3.661817999999997e-01  1.67016290e+00   1.11841957e+00  -4.34450310e-01
C     6.153661890399999e+00   6.565689731706705e+00   3.809505600000000e+00 -6.78433350e-01   3.20866779e+00  -5.95974390e-01
C     7.353974364099999e+00   7.371832521042590e+00   3.702603900000000e+00  4.89216780e-01  -1.94611004e+00   8.72471870e-01
C     8.641404078999999e+00   6.181559100439923e+00  -4.374543000000024e-01  1.52242894e+00   1.96381280e-01   2.82023420e-01
C     9.903787471199999e+00   6.917791730124475e+00  -4.214949000000026e-01 -1.27872191e+00  -9.07463090e-01  -1.20883900e-01
C     8.588285991199999e+00   6.658589725443656e+00   3.754950300000000e+00  7.49938540e-01  -2.35992070e-01   6.41193510e-01
C     9.862114674200001e+00   7.310305107979474e+00   3.873403800000000e+00 -1.45483777e+00   1.15731295e+00  -4.97958580e-01
C     1.113595405530000e+01   6.200757101531793e+00  -4.543835999999999e-01 -1.97139935e+00  -1.00054808e+00   3.65355070e-01
C     1.234055060040000e+01   6.845353937980958e+00  -4.378409999999988e-01  1.35988810e+00   2.86958711e+00  -2.88234800e-01
C     1.108363383870000e+01   6.590723634121026e+00   3.899954700000000e+00 -2.63257240e-01   1.57728360e+00  -5.10381900e-01
C     1.226890488240000e+01   7.387775622119692e+00   3.789059100000000e+00  1.73908539e+00  -2.36607370e+00   5.56781460e-01
