64
Lattice="9.86 0 0 4.93 8.53901048131456 0 0 0 30 " PBC="1 1 1" Properties=species:S:1:pos:R:3:force:R:3 Energy="-516.0764487"
C     4.965175303499999e+00   8.094451064758458e+00   1.222425000000000e-01 -4.47853090e-01   5.23814240e-01  -4.54407280e-01
C     1.265421208900000e+00   2.726892863438744e-01   6.253920000000000e-02 -5.40919920e-01   4.90698150e-01   1.07693569e+00
C     9.829799460900000e+00   4.218459889251608e-01   3.283967100000000e+00 -1.39302390e-01  -6.96902300e-01  -7.71504000e-03
C     1.187657804600000e+00   1.141312527702547e+00   3.295833300000000e+00 -4.09605600e-02  -2.56233360e-01  -2.70517860e-01
C     7.403758095700000e+00   8.106789422561430e+00   1.354512000000000e-01  1.69540461e+00   1.07240366e+00  -7.82356350e-01
C     3.735307430500000e+00   3.103189977271384e-01   1.267995000000000e-01 -1.62851645e+00  -9.73582810e-01  -5.69931490e-01
C     2.415195315900000e+00   4.435325138412168e-01   3.277503900000000e+00  3.70277130e-01  -1.38454458e+00   4.74677510e-01
C     3.663942278800000e+00   1.102750527155077e+00   3.342046500000000e+00  7.75572400e-01   2.18362210e-01  -2.06506580e-01
C     9.860186994899999e+00   8.106296380096314e+00   2.835990000000000e-02  1.67475365e+00   1.75885817e+00   4.60151750e-01
C     6.192337543200000e+00   2.862153351145088e-01   3.530670000000000e-02 -4.11912930e-01   4.83476320e-01   4.11059380e-01
C     4.923012464499999e+00   4.131763315848168e-01   3.366938700000000e+00 -1.05329203e+00  -1.26700000e-02  -2.90327570e-01
C     6.131396038400000e+00   1.172210937124427e+00   3.349973400000000e+00  2.79314310e-01  -1.89171787e+00  -2.71982600e-01
C     1.234151559860000e+01   8.129952256999372e+00   1.086243000000000e-01  6.45414490e-01  -1.03944463e+00  -7.24348220e-01
C     8.661340604599999e+00   2.756221802734400e-01   1.264842000000000e-01 -1.69768570e-01   9.64394320e-01  -4.59096000e-02
C     7.371960631000000e+00   4.102056952289296e-01   3.348451200000000e+00 -5.21159030e-01   1.01296308e+00  -3.95423770e-01
C     8.602872234299999e+00   1.122396826297146e+00   3.270113400000000e+00 -2.46288560e-01  -4.24984090e-01   5.51644490e-01
C     1.271933886800000e+00   1.699995903399394e+00   1.247487000000000e-01  6.05086870e-01   8.09920000e-01  -6.91124600e-01
C     2.512493993100000e+00   2.446352640079348e+00   4.776540000000000e-02 -8.55981560e-01  -4.58238090e-01   6.85262450e-01
C     1.103786840220000e+01   2.557201890015573e+00   3.297857700000000e+00  1.02992219e+00   8.80156100e-02   2.66334690e-01
C     2.428645144700000e+00   3.237417159319543e+00   3.368872500000000e+00  6.45912300e-02   7.24049380e-01   6.36316000e-02
C     3.721442939400000e+00   1.731390258549952e+00   9.369570000000001e-02  1.01556711e+00  -7.26143780e-01  -1.78105730e-01
C     4.977112460400000e+00   2.407122632742027e+00   8.214630000000001e-02 -3.56149490e-01   5.46541470e-01  -2.58783470e-01
C     3.690014090800000e+00   2.509394873601616e+00   3.336476100000000e+00 -1.85685836e+00   1.65773239e+00   1.98986960e-01
C     4.864142447100000e+00   3.273217302317363e+00   3.306129900000000e+00  1.80559144e+00   3.42372690e-01   6.86955100e-02
C     6.221607446200000e+00   1.715003726658622e+00   6.850230000000000e-02 -2.48476390e-01   2.54996200e-02   8.29360200e-02
C     7.457154334100000e+00   2.460571287990015e+00   1.075815000000000e-01 -9.64303900e-01  -1.25197445e+00  -2.52733220e-01
C     6.113828772199999e+00   2.573810094618963e+00   3.252961200000000e+00  5.60586740e-01   4.63454220e-01   1.07919610e+00
C     7.390660515400000e+00   3.257616957120927e+00   3.319401600000000e+00 -1.35316940e+00  -5.43188230e-01  -6.24071250e-01
C     8.668992161799999e+00   1.725772614335370e+00   1.322790000000000e-01  6.92097620e-01  -4.21592850e-01  -5.81875800e-02
C     9.921738242100000e+00   2.437410929865111e+00   1.407453000000000e-01 -1.12025867e+00  -7.27214420e-01  -2.87738520e-01
C     8.589788408699999e+00   2.527121773967991e+00   3.283172700000000e+00  1.04985363e+00   1.30783087e+00  -1.60467200e-02
C     9.833018948099999e+00   3.277792845692966e+00   3.264626100000000e+00 -8.92250540e-01  -2.78728930e-01   3.38765470e-01
C     2.505003992000000e+00   3.873825938619436e+00   5.691540000000000e-02 -4.85817180e-01  -8.20333130e-01  -2.23818850e-01
C     3.731232982699999e+00   4.587390484133256e+00   3.098700000000000e-02 -2.26228490e-01  -1.36825863e+00  -2.79745310e-01
C     1.227215059720000e+01   4.681342910911868e+00   3.455489400000000e+00  1.01711277e+00  -4.40002860e-01  -4.98620780e-01
C     3.670020722300000e+00   5.383019446035431e+00   3.404393400000000e+00 -7.06035120e-01   7.80351150e-01   6.15343200e-02
C     4.942345952500000e+00   3.821911572774495e+00   5.480190000000000e-02  9.05374080e-01   1.58095626e+00  -1.68120520e-01
C     6.179333583599999e+00   4.570966295205711e+00   3.217410000000000e-02  1.84457460e-01  -6.98266310e-01   2.52846290e-01
C     4.909265800400000e+00   4.729694203853819e+00   3.344134500000000e+00 -1.04154002e+00  -2.91722887e+00   1.07672560e-01
C     6.140381259200000e+00   5.366298782664019e+00   3.329500500000000e+00  7.61307280e-01   1.79313556e+00  -3.86068050e-01
C     7.417234201399999e+00   3.875044796975352e+00   7.303770000000000e-02  2.70749900e-01  -1.75025670e-01  -2.07043470e-01
C     8.648484101299999e+00   4.576879816133425e+00   4.957379999999999e-02  6.02624860e-01   1.64739690e-01   1.51521380e-01
C     7.391383746399999e+00   4.658987098354388e+00   3.301786200000000e+00 -7.99461340e-01   1.13097611e+00   2.86082360e-01
C     8.582562063999999e+00   5.416526437768846e+00   3.315823800000000e+00  9.95562980e-01  -5.44245660e-01  -2.38414170e-01
C     9.888610515500000e+00   3.857697882575337e+00   9.747030000000001e-02 -4.63469990e-01  -4.31971170e-01  -2.23648950e-01
C     1.110698660780000e+01   4.541266592075012e+00   5.967090000000001e-02  1.11530582e+00   1.17965416e+00   1.62429930e-01
C     9.845094391500000e+00   4.702179035774220e+00   3.287953200000000e+00 -1.28472910e+00   1.97546980e-01   8.31085470e-01
C     1.105192062770000e+01   5.424280627795630e+00   3.437024400000000e+00  3.50950790e-01  -1.07792231e+00  -6.74333260e-01
C     3.719639890500000e+00   5.994147203957713e+00  -3.591090000000108e-02  7.15344490e-01  -8.89097900e-02   1.10439616e+00
C     4.953430120799999e+00   6.680176514717306e+00   8.413950000000001e-02  1.00923732e+00   2.88915180e-01  -5.55331550e-01
C     1.353856968740000e+01   6.797713603051571e+00   3.360694800000000e+00 -1.42048542e+00   1.01375569e+00  -3.63817800e-02
C     4.889876356900000e+00   7.522447686613860e+00   3.309060600000000e+00  5.58439660e-01   3.22264220e-01  -1.03536380e-01
C     6.224838321700000e+00   5.986330252203902e+00   6.828690000000001e-02 -2.03718966e+00  -2.15756070e-01  -3.11661480e-01
C     7.431290666700000e+00   6.705113413972573e+00   5.957670000000000e-02  5.45607150e-01  -4.58042580e-01   1.75890100e-01
C     6.126022042599999e+00   6.817964378745519e+00   3.273042900000000e+00  3.93484970e-01  -6.30564020e-01   5.18054000e-01
C     7.357246207899999e+00   7.536825843240294e+00   3.272843400000000e+00 -9.49509480e-01   9.41144950e-01   2.00380310e-01
C     8.674949130100000e+00   6.003347646189494e+00   2.521260000000000e-02 -2.42756230e-01  -3.29036300e-01   2.43780520e-01
C     9.906726244200000e+00   6.718097747918357e+00   4.390170000000000e-02 -1.92083840e-01  -1.86381840e+00  -2.03540000e-02
C     8.571061458600001e+00   6.843068557216092e+00   3.324944400000000e+00  6.03908500e-01  -8.83001080e-01  -1.06445100e-01
C     9.818183937200001e+00   7.516485151765990e+00   3.340832100000000e+00 -1.34178760e-01   1.54552171e+00   3.40901070e-01
C     1.114583569800000e+01   5.964637835370614e+00   7.547460000000000e-02 -1.26104583e+00   8.42239800e-01  -5.99778050e-01
C     1.235308137860000e+01   6.687755569639144e+00   3.280440000000000e-02  5.29646700e-02   6.21668260e-01   1.36738730e-01
C     1.103107057310000e+01   6.833851634694084e+00   3.387645000000000e+00  1.51323995e+00  -1.69553230e-01   2.49032900e-02
C     1.228484638250000e+01   7.540754300401722e+00   3.339117900000000e+00  2.02727510e-01  -7.53717460e-01   6.56280390e-01
