32
Lattice="9.86 0 0 4.93 8.53901048131456 0 0 0 30 " PBC="1 1 1" Properties=species:S:1:pos:R:3:force:R:3 Energy="-247.95759082"
C     9.789135736299999e+00   1.756314776240024e-01   3.554003700000000e+00  1.49207138e+00  -3.54284876e+00   2.48039381e+00
C     1.217253038300000e+00   8.304127064825592e-01   3.622495500000000e+00  5.91245410e-01  -7.82929239e+00   1.46905844e+00
C     2.487901033200000e+00   9.493688929684960e-02   4.063572000000000e+00 -2.50590410e+00  -1.07094700e-01  -9.72583070e-01
C     3.653110871600000e+00   8.426006923109777e-01   3.942167700000000e+00  1.51513216e+00  -1.51822701e+00   2.94823340e-01
C     4.864320715900000e+00   1.194577679615320e-01   3.903231900000000e+00  1.97493524e+00   1.39842686e+00   1.52761006e+00
C     6.159383747000000e+00   9.127083592747121e-01   4.023660000000000e+00 -2.60790690e+00  -2.54414015e+00  -5.56845100e-01
C     7.396561873300000e+00   9.520509961602640e-02   4.116612000000000e+00 -4.65284330e+00  -2.20388459e+00  -2.68906700e-01
C     8.482455949000000e+00   7.492643551384992e-01   3.698425500000000e+00  5.01459427e+00   1.29782908e+00   6.11239920e-01
C     1.216655127900000e+00   2.101538516326049e+00   3.643869300000000e+00  2.35839098e+00   8.92623467e+00   4.79122100e-02
C     2.505211594300000e+00   2.907403873211437e+00   3.767757000000000e+00 -5.54276474e+00   3.02011787e+00  -4.27159800e-02
C     3.648363084400000e+00   2.220034450147114e+00   3.900383700000000e+00  2.53366905e+00   5.11695574e+00  -5.99173870e-01
C     4.869067467799999e+00   3.215707493685086e+00   3.890985300000000e+00  1.16977929e+00  -1.32332000e+01   1.94675840e-01
C     6.088175122800000e+00   2.375511045164858e+00   3.910820400000000e+00 -4.93562290e-01  -3.72505557e+00  -9.31435500e-02
C     7.359715053300000e+00   2.880017388019772e+00   3.878032500000000e+00  6.82167170e-01   1.99430623e+00   1.67722303e+00
C     8.628268044700000e+00   2.125970162331215e+00   3.868015800000000e+00 -2.36936151e+00   3.14402452e+00  -1.84650609e+00
C     9.859683001000001e+00   2.811299615791867e+00   3.694675500000000e+00 -1.18071710e-01   2.72822097e+00  -1.51853260e-01
C     1.223888990850000e+01   4.550183112208333e+00   3.815588700000000e+00  1.36935427e+00  -5.46181848e+00  -1.09964420e-01
C     3.683503631400000e+00   5.076371710474064e+00   3.905265600000000e+00 -1.26875006e+00   3.51886508e+00   1.29898021e+00
C     4.962884431099999e+00   4.470738378845138e+00   4.038547200000000e+00 -4.10621983e+00   3.54129047e+00  -1.65749788e+00
C     6.157774397800000e+00   5.119698820429794e+00   3.989328900000000e+00  4.54395530e-01   1.71844070e+00   2.57445152e+00
C     7.244152550199999e+00   4.261492744906197e+00   4.126711200000000e+00  6.92502641e+00   3.05578795e+00  -2.63010260e+00
C     8.615609875299999e+00   4.976059257909740e+00   3.913668900000000e+00 -1.32185854e+00   8.11339790e-01   2.05769073e+00
C     9.890024883200001e+00   4.320384080044033e+00   3.687315900000000e+00 -4.61526583e+00  -1.22477127e+00   1.03056919e+00
C     1.092517077140000e+01   5.227056042030222e+00   3.802018200000000e+00  5.23724178e+00  -4.76787752e+00  -8.82082470e-01
C     1.354126541140000e+01   6.492910037583569e+00   4.077045300000000e+00  1.56342162e+00   7.46864430e-01  -3.73522280e-01
C     4.962383296600000e+00   7.358874145688666e+00   3.981540000000000e+00 -1.99382014e+00  -3.37304588e+00  -2.85101170e-01
C     6.155199508099999e+00   6.550441876862884e+00   4.201074900000000e+00  1.50626261e+00   1.24240225e+00  -6.32387470e-01
C     7.449464667999999e+00   7.225330682209639e+00   4.386311999999999e+00 -1.76733855e+00  -6.97988840e-01  -2.63116760e+00
C     8.659722529300000e+00   6.430523087725536e+00   4.200310200000001e+00 -1.77693673e+00   1.72176090e-01  -1.28466195e+00
C     9.780931082399999e+00   7.242592462675169e+00   3.931774500000000e+00  1.06544459e+00   1.00780737e+00   6.39623970e-01
C     1.101606079370000e+01   6.578759284977079e+00   3.882169500000000e+00 -1.06618800e-01  -5.72064400e-01   1.37384007e+00
C     1.229032760580000e+01   7.041005552625845e+00   4.233603900000000e+00 -2.05908740e-01   7.36021950e+00  -2.25987690e+00
