32
Lattice="9.86 0 0 4.93 8.53901048131456 0 0 0 30 " PBC="1 1 1" Properties=species:S:1:pos:R:3:force:R:3 Energy="-252.39724051"
C     9.690722386100001e+00   5.134608615848713e-01   4.514520000000000e+00  2.26642401e+00  -2.78279221e+00  -3.23970710e-01
C     1.053045436400000e+00   1.208306188324435e+00   4.353138299999999e+00  2.80774958e+00   1.88747380e-01   1.51656965e+00
C     2.413158239900000e+00   4.267786337190376e-01   4.465728899999999e+00 -3.53067493e+00   2.66774146e+00   1.55156540e-01
C     3.663708399599999e+00   1.098394094788390e+00   4.718122200000000e+00 -5.50798151e+00   3.42137001e+00  -6.95731510e-01
C     4.839940584100000e+00   5.078949637737976e-01   4.864246200000000e+00  2.40017817e+00  -1.59625774e+00  -2.95529778e+00
C     6.053332397100000e+00   1.339987208227668e+00   4.519209000000000e+00 -3.42319366e+00  -4.46893751e+00   1.92229334e+00
C     7.170676717600000e+00   5.548182779931792e-01   4.443585600000000e+00  4.01669777e+00   1.88300127e+00  -3.05868390e-01
C     8.466805516099999e+00   1.158476024157452e+00   4.474847100000000e+00 -4.03382770e-01   1.44234655e+00  -9.86444500e-02
C     1.096029440850000e+01   2.692783529906070e+00   4.438302300000000e+00 -2.05846763e+00  -4.74402600e+00  -3.71746230e-01
C     2.288792926000000e+00   3.299969082860050e+00   4.431318300000000e+00  3.77121819e+00   3.57326120e-01   9.72557420e-01
C     3.550912020900000e+00   2.533914044464202e+00   4.655041800000000e+00 -8.70055600e-01   1.74405998e+00  -7.81136150e-01
C     4.717211192100000e+00   3.296686601841433e+00   4.665538199999999e+00  1.94348560e+00   3.06616107e+00  -7.70536010e-01
C     5.986747274800000e+00   2.685957359538253e+00   4.544182500000000e+00  2.01462678e+00   9.41343170e-01   8.57719240e-01
C     7.352149573899999e+00   3.279484936009683e+00   4.597852200000000e+00 -3.59979887e+00   1.49648179e+00  -1.48274849e+00
C     8.492482237899999e+00   2.554234498483668e+00   4.506991500000000e+00  3.42951993e+00   1.62023444e+00   6.50720350e-01
C     9.779137055400000e+00   3.387625441041441e+00   4.569351600000000e+00 -2.72824482e+00  -1.16168051e+00  -1.17171522e+00
C     1.211657222080000e+01   4.705264777991378e+00   4.454808900000000e+00  3.09368904e+00   1.93920313e+00   2.18214560e-01
C     3.503992077000000e+00   5.456771648062134e+00   4.546791300000000e+00  1.22876617e+00   2.18716479e+00   3.46713100e-01
C     4.824045524600000e+00   4.829622827897067e+00   4.579545000000000e+00 -3.53722015e+00  -4.33992506e+00   7.54152910e-01
C     6.072568221799999e+00   5.387445983678158e+00   4.637662799999999e+00  2.08001307e+00   2.63057940e+00  -1.17009098e+00
C     7.437666192000000e+00   4.673004225617728e+00   4.504521300000000e+00 -6.56331803e+00   1.48262690e-01   1.75989668e+00
C     8.532831625699998e+00   5.418320056920170e+00   4.631949900000000e+00  5.97093510e-01   4.26860992e+00  -7.76986230e-01
C     9.774574291099999e+00   4.820393267639550e+00   4.524951300000001e+00 -8.75010290e-01  -2.30851640e+00   9.82326700e-01
C     1.095747711070000e+01   5.498093029846217e+00   4.494001500000000e+00  1.42864694e+00   2.55369225e+00   9.99382000e-02
C     1.338473441110000e+01   6.944789434168986e+00   4.630269300000000e+00  5.86093100e-02  -1.34411173e+00  -1.39511070e+00
C     4.822385889400000e+00   7.562743020898665e+00   4.663675200000000e+00 -2.32624728e+00   1.83489731e+00  -9.84627560e-01
C     6.023183080699999e+00   6.866663465584322e+00   4.585083900000000e+00  2.00068500e-02  -1.81570960e+00   6.99532600e-02
C     7.221247868800000e+00   7.591597020431424e+00   4.464231600000000e+00  5.99589590e-01  -6.16129020e-01   1.11756003e+00
C     8.398262148499999e+00   6.885562174358868e+00   4.631141700000000e+00  4.17785406e+00  -1.29648544e+00  -4.95648420e-01
C     9.679678397299998e+00   7.608514081043876e+00   4.622761200000000e+00  9.24824390e-01   8.48628300e-01   1.46779038e+00
C     1.097481163160000e+01   7.021946993575114e+00   4.573084500000000e+00 -1.53997322e+00  -4.26115195e+00  -1.40527400e+00
C     1.216166269100000e+01   7.749730784730334e+00   4.387009500000000e+00  1.04575780e-01  -4.50412787e+00   2.29357046e+00
