32
Lattice="9.86 0 0 4.93 8.53901048131456 0 0 0 30 " PBC="1 1 1" Properties=species:S:1:pos:R:3:force:R:3 Energy="-252.21642039"
C     5.202824375900000e+00   7.677922061488879e+00  -5.415071999999981e-01 -1.86363053e+00  -2.81285051e+00  -1.94394285e+00
C     6.419483053400000e+00   8.346985553886180e+00  -5.385017999999988e-01 -2.52076570e-01  -3.98291000e-02   1.88942130e-01
C     7.627428054500000e+00   7.624847329509810e+00  -4.637630999999978e-01  1.10570320e+00   2.90730500e-01  -1.63801538e+00
C     8.824884776399999e+00   8.343868473500560e+00  -7.533902999999995e-01  1.81655256e+00   5.02268280e-01   1.43021202e+00
C     1.008489368340000e+01   7.608323575720067e+00  -8.146553999999995e-01  4.52988270e-01   4.85748773e+00   1.39904030e+00
C     1.134419937520000e+01   8.360108134411634e+00  -6.486951000000012e-01 -9.58632400e-01   1.93729732e+00  -1.14640153e+00
C     1.262807806040000e+01   7.751476329252657e+00  -6.572975999999997e-01 -4.40198412e+00  -3.61332919e+00  -2.15135610e-01
C     1.379336830710000e+01   8.381597322795496e+00  -4.897059000000006e-01  3.27149043e+00  -8.06846240e-01  -2.47134060e-01
C     1.435172842300000e+00   1.207275444369394e+00  -6.821106000000015e-01  1.83627399e+00  -7.07677620e-01   1.16163293e+00
C     2.711239893200000e+00   1.898101800436442e+00  -5.737574999999993e-01 -2.87007410e+00   4.20333749e+00  -6.12264800e-01
C     3.957425129500000e+00   1.303404208749043e+00  -6.231914999999972e-01 -3.57226590e+00  -4.46099027e+00  -9.38059510e-01
C     5.065449432899999e+00   2.039976520270489e+00  -6.736605000000004e-01  5.75529412e+00  -1.87124945e+00   1.43403131e+00
C     6.369652881199999e+00   1.277164256494526e+00  -6.189365999999978e-01 -9.99942500e-01   2.11486920e-01  -6.23835660e-01
C     7.582133087899999e+00   1.999867421804252e+00  -6.507107999999988e-01  1.09901302e+00  -1.22945167e+00   1.53246796e+00
C     8.872355204100000e+00   1.206295507526709e+00  -5.059433999999996e-01 -5.35325375e+00   1.90683325e+00  -8.33922240e-01
C     1.001677690870000e+01   1.812917571179115e+00  -7.095941999999980e-01  6.81626110e+00   5.58521271e+00   4.45505920e-01
C     2.687223595400000e+00   3.431704667040250e+00  -5.837919000000014e-01  1.10863624e+00  -2.43346147e+00  -7.30850140e-01
C     3.970902467699999e+00   4.083135273576559e+00  -6.979335000000013e-01 -5.48091282e+00   4.03523281e+00   1.21402730e+00
C     5.113060217699999e+00   3.410699469770393e+00  -4.968690000000002e-01  3.21596756e+00   7.05953760e-01  -1.72576220e+00
C     6.364268877499999e+00   4.143391142589098e+00  -5.768130000000014e-01  1.44260071e+00  -5.47597430e-01  -6.92819980e-01
C     7.624750571499999e+00   3.447201177869249e+00  -6.030321000000001e-01 -7.11139810e-01  -3.17979742e+00  -3.51095960e-01
C     8.913879361599999e+00   3.950798286888253e+00  -6.782259000000010e-01  5.80605120e-01   6.12948401e+00   1.48410524e+00
C     1.019696885240000e+01   3.299971303002774e+00  -6.673970999999987e-01 -5.02609940e+00  -3.32797500e-01  -5.79659600e-01
C     1.130574093820000e+01   4.132933672624557e+00  -6.345261000000022e-01  2.56122532e+00   5.14570890e-01   6.03864620e-01
C     3.875532307899999e+00   5.597948901520175e+00  -7.374146999999986e-01  3.91657416e+00  -3.57173398e+00  -1.73149464e+00
C     5.172208089900000e+00   6.209176565865072e+00  -9.332999999999991e-01  1.56085500e-02   3.35834613e+00   3.52222674e+00
C     6.455027613900000e+00   5.544605703051615e+00  -7.723031999999996e-01 -4.13201587e+00  -2.21119759e+00   8.47914740e-01
C     7.637846475599999e+00   6.166395696409748e+00  -4.783532999999984e-01  1.46049582e+00   3.40866825e+00  -7.51750180e-01
C     8.879547433199999e+00   5.565762211587177e+00  -4.886870999999999e-01  1.76898923e+00  -4.61174396e+00  -9.09769480e-01
C     1.013410218260000e+01   6.287472887708812e+00  -5.795081999999994e-01 -2.60916235e+00  -2.57013623e+00   1.14483810e-01
C     1.134429422840000e+01   5.630849965069929e+00  -5.636687999999985e-01 -6.36048000e-02  -3.65745869e+00  -1.20640006e+00
C     1.255563028070000e+01   6.301103624747932e+00  -7.776708000000028e-01  7.05155200e-02   1.01123831e+00   1.49985887e+00
