32
Lattice="9.86 0 0 4.93 8.53901048131456 0 0 0 30 " PBC="1 1 1" Properties=species:S:1:pos:R:3:force:R:3 Energy="-253.34227471"
C     5.261063057499999e+00   7.559610655684287e+00  -2.897511000000002e-01 -2.99280284e+00  -5.89539110e-01   3.70648290e-01
C     6.446763356300000e+00   8.338183798053709e+00  -3.522588000000013e-01 -1.36808614e+00  -4.28709863e+00   3.52534160e-01
C     7.623831520900000e+00   7.596218930633934e+00  -3.147255000000015e-01  8.58421430e-01  -2.82309756e+00   2.99664560e-01
C     8.865741116099999e+00   8.211400156831070e+00  -1.369076999999983e-01  1.63577910e+00  -1.53411270e-01  -1.35364880e+00
C     1.011123866670000e+01   7.468962057450494e+00  -2.295845999999990e-01  2.51912890e-01   3.48034221e+00   4.91183480e-01
C     1.139817548020000e+01   8.234330388623539e+00  -3.546987000000001e-01 -2.29472872e+00  -1.14230680e-01   1.29651848e+00
C     1.264838187100000e+01   7.574370933029701e+00  -1.756481999999977e-01 -2.45084205e+00   2.07991080e-01  -6.61654310e-01
C     1.381295529570000e+01   8.282349941008343e+00  -4.058300999999993e-01  3.78025433e+00  -3.24360858e+00   1.05393401e+00
C     1.427989142100000e+00   1.114972156684786e+00  -1.540865999999994e-01  3.68797744e+00   4.38337451e+00   3.13664210e-01
C     2.795715886900000e+00   1.812482252424844e+00   3.944610000000000e-02 -4.58085548e+00   1.39863240e+00   7.78383660e-01
C     3.983812560100000e+00   1.073704997617252e+00  -2.338649999999731e-02  7.33598170e-01   2.85850142e+00   3.88860610e-01
C     5.215284211400000e+00   1.894316798651077e+00   1.437660000000000e-02  3.30282400e-01  -3.71095286e+00  -1.61349646e+00
C     6.441722283399999e+00   1.159797094468813e+00  -3.362441999999994e-01 -2.13039613e+00  -1.74320249e+00   1.27911420e+00
C     7.653430550699999e+00   1.773240375862956e+00  -2.920568999999986e-01  1.24783621e+00   4.68383249e+00  -4.68945040e-01
C     8.903159618899998e+00   1.103311113193089e+00  -3.990846000000019e-01 -1.41845463e+00   2.70505107e+00   3.66498480e-01
C     1.008115408120000e+01   1.827974152188184e+00  -1.795620000000007e-01  2.14943363e+00   2.14270500e+00   7.50221060e-01
C     2.705172295700000e+00   3.292143848266073e+00   3.187149000000000e-01  1.22468559e+00  -1.75797570e+00  -1.57191487e+00
C     3.972396504200000e+00   3.914877231502037e+00   1.792539000000000e-01 -1.89100001e+00   4.87831628e+00   5.62867180e-01
C     5.205018965399999e+00   3.281900024343741e+00   6.490980000000000e-02 -6.26940800e-01  -7.18475180e-01  -2.21991230e-01
C     6.380721618599999e+00   4.002596266020352e+00  -1.153991999999988e-01  3.23007517e+00  -1.30322850e-01   2.41022530e-01
C     7.654598221200000e+00   3.315884944493722e+00  -2.059019999999983e-01 -1.01334974e+00  -3.72546036e+00   3.41062900e-01
C     8.896097344599999e+00   3.936191626341374e+00  -7.129949999999852e-02 -7.12181000e-03   3.31217645e+00  -1.08556231e+00
C     1.016316640600000e+01   3.297669698117995e+00   7.088609999999999e-02 -2.08637406e+00  -1.22713313e+00  -5.67235930e-01
C     1.132930564800000e+01   4.079942622948193e+00   2.972799000000000e-01  1.90062351e+00  -1.15532274e+00  -1.04639712e+00
C     3.949062321200000e+00   5.459722046963184e+00   8.676270000000000e-02  1.05421763e+00  -2.52259730e+00   1.43775760e+00
C     5.222017408200000e+00   6.113813665335377e+00   2.124090000000000e-02 -1.39322473e+00   2.55008560e+00  -1.71126849e+00
C     6.440882556500000e+00   5.418306736063822e+00  -9.444749999999758e-02 -3.40418294e+00  -2.05510887e+00  -1.48277250e-01
C     7.559894449499999e+00   6.091898721888980e+00  -3.349215000000001e-01  5.54907154e+00   3.38309006e+00   1.31352200e-01
C     8.868631525800000e+00   5.417875772204896e+00  -2.710836000000008e-01 -2.32647414e+00  -2.58769332e+00   1.69002116e+00
C     1.003040535140000e+01   6.102456439836557e+00  -3.711180000000169e-02  4.30173641e+00   9.05637460e-01  -1.18008804e+00
C     1.139351973610000e+01   5.542269942124916e+00   1.279752000000000e-01 -4.27969605e+00  -4.19934005e+00   1.10305247e+00
C     1.258548355060000e+01   6.205105763398943e+00   1.711638000000000e-01  2.32862482e+00  -1.45165350e-01  -1.61788137e+00
