32
Lattice="9.86 0 0 4.93 8.53901048131456 0 0 0 30 " PBC="1 1 1" Properties=species:S:1:pos:R:3:force:R:3 Energy="-252.7391296"
C     9.628971276700000e+00   9.318185793388473e-01   3.871649700000000e+00 -1.49661583e+00  -7.15424320e-01   1.58190834e+00
C     9.884541047000001e-01   1.592296523649031e+00   4.075811100000000e+00 -1.17952450e-01   7.06315160e-01  -1.65874163e+00
C     2.204532718400000e+00   9.757008103658816e-01   4.107315000000000e+00  2.14088919e+00  -5.65535684e+00  -1.35294320e+00
C     3.431517133000000e+00   1.600333696483122e+00   3.924562800000000e+00  1.73576823e+00   2.73138034e+00   8.59003480e-01
C     4.719192460500000e+00   9.473566751488840e-01   4.016471100000000e+00 -2.21716997e+00  -4.19932317e+00  -4.62253130e-01
C     5.950431070700000e+00   1.504784133184332e+00   3.988616400000000e+00  2.95984928e+00   2.57765012e+00   1.20017591e+00
C     7.240150179000000e+00   8.339095166642241e-01   4.135460999999999e+00 -2.62851715e+00   1.92621001e+00  -2.45330884e+00
C     8.392343387699999e+00   1.682042719255298e+00   3.928859400000000e+00 -5.49092260e-01  -1.98381532e+00   7.31651270e-01
C     1.087620911730000e+01   2.979856864793609e+00   3.869894100000000e+00  1.20112891e+00   4.28206410e-01   6.13476110e-01
C     2.237982374000000e+00   3.755034640425869e+00   3.881586900000000e+00  5.99575570e-01   2.54974140e-01   3.43822650e-01
C     3.514228581099999e+00   3.102328476504057e+00   3.913117800000000e+00 -2.35684119e+00  -4.00394174e+00   9.38449060e-01
C     4.751992785800000e+00   3.659441784343946e+00   4.201850700000000e+00 -7.23493650e-01   1.67555746e+00  -2.27227328e+00
C     5.992814182100000e+00   2.909047291168418e+00   4.024887300000000e+00 -3.41397544e+00   2.30768444e+00   1.07165188e+00
C     7.064866148899999e+00   3.757486446504991e+00   4.021133100000000e+00  3.36810154e+00   2.00978339e+00  -1.32282503e+00
C     8.303737927399998e+00   3.126217126832800e+00   3.936714600000000e+00  3.37035899e+00  -4.29470841e+00  -3.21060960e-01
C     9.659806158900000e+00   3.594319789429169e+00   3.836411100000000e+00 -3.68866707e+00   6.68918010e+00   1.01680660e-01
C     1.209683703640000e+01   5.197016998623050e+00   3.953808300000000e+00 -4.51652029e+00  -3.12380541e+00  -6.61096840e-01
C     3.387879829600000e+00   5.834611419528091e+00   3.997450200000000e+00  5.36344228e+00   2.79601417e+00   4.92375900e-02
C     4.631738796100000e+00   5.104442938916121e+00   4.151068800000000e+00  1.09969368e+00   6.75835660e-01   2.97793580e-01
C     5.819863373100000e+00   5.885167399585874e+00   4.182804000000000e+00  2.70505079e+00   4.37078260e-01  -1.84768895e+00
C     7.111872219899999e+00   5.221070281073847e+00   3.881403600000000e+00 -1.40279425e+00  -2.30919240e-01   3.83762414e+00
C     8.400964281500000e+00   5.926267364828210e+00   4.107967200000000e+00 -5.36983970e-01  -4.24619899e+00  -2.57290795e+00
C     9.601853417299999e+00   5.094885395266066e+00   3.864061200000000e+00  1.10764028e+00   1.46172018e+00   1.26353217e+00
C     1.082916202870000e+01   5.874919049987987e+00   3.938191800000000e+00  1.75805860e-01  -2.54133838e+00  -1.33973850e-01
C     1.334823047260000e+01   7.315019666445691e+00   3.856937100000000e+00 -2.97493982e+00  -2.72408917e+00   1.26038954e+00
C     4.647235758099999e+00   8.011880711999163e+00   3.967651200000000e+00  2.69615647e+00   2.62821042e+00  -2.97799920e-01
C     5.905358742900000e+00   7.346085355082875e+00   4.119834600000000e+00 -7.17777190e-01  -2.81770514e+00  -5.25916270e-01
C     7.179577191700000e+00   7.916191706659236e+00   4.016049300000000e+00 -1.27888377e+00   5.66426565e+00   1.72966889e+00
C     8.427422704100000e+00   7.319919094488800e+00   4.130114100000000e+00  1.20192446e+00  -9.87830400e-02  -6.25568060e-01
C     9.697280715800000e+00   8.030141642080958e+00   4.053200700000000e+00 -1.85470023e+00  -1.53046900e-01   6.86702120e-01
C     1.090800850470000e+01   7.245532700153747e+00   4.044037200000000e+00 -2.84334793e+00   2.81239899e+00  -4.65616080e-01
C     1.207778017070000e+01   7.996345690232900e+00   3.961305000000000e+00  3.59288695e+00  -9.94008840e-01   4.07206580e-01
