32
Lattice="9.86 0 0 4.93 8.53901048131456 0 0 0 30 " PBC="1 1 1" Properties=species:S:1:pos:R:3:force:R:3 Energy="-253.84572415"
C     5.038722670399999e+00   8.299711713286595e+00  -8.185310999999977e-01 -3.11821569e+00  -1.89539170e+00  -8.68875740e-01
C     1.293640676800000e+00   4.617551891560608e-01  -8.975538000000007e-01  1.25313643e+00  -7.77210000e-01  -5.09356110e-01
C     7.426354947899999e+00   8.201333517376199e+00  -8.494218000000018e-01 -9.37302100e-02   2.12296586e+00  -4.65026680e-01
C     3.711514905400000e+00   3.674264481855968e-01  -1.030084500000001e+00  1.02121690e+00   2.90137412e+00   1.62054972e+00
C     9.897495114999998e+00   8.311444826026742e+00  -9.824184000000002e-01  1.00810398e+00  -2.11618331e+00  -8.71867610e-01
C     6.250881786199999e+00   4.775132498760624e-01  -1.090196100000000e+00 -1.46002311e+00  -2.17056958e+00   7.75749580e-01
C     1.237963864770000e+01   8.191643789843914e+00  -1.124160900000000e+00  6.10993790e-01   4.15356873e+00   8.44005660e-01
C     8.660700542699999e+00   4.281481202198200e-01  -9.037235999999993e-01  2.41905392e+00  -1.54518164e+00  -1.89106660e-01
C     1.353511632100000e+00   1.857702802564409e+00  -1.180575000000001e+00  8.92910700e-02   1.83575690e-01   2.78948501e+00
C     2.592697451600000e+00   2.571136701217885e+00  -1.006554000000001e+00 -1.89642501e+00  -3.39420608e+00  -1.08400809e+00
C     3.791199826500000e+00   1.821001452400530e+00  -9.152468999999996e-01  2.16867810e-01   1.06061743e+00  -1.41540338e+00
C     5.031495093199999e+00   2.619311578203320e+00  -9.538493999999993e-01 -8.37100660e-01  -4.95866506e+00   7.77731790e-01
C     6.273736082999999e+00   1.882090985006232e+00  -9.581066999999983e-01 -8.95275500e-02  -1.59678970e-01  -2.39541950e-01
C     7.529444255200000e+00   2.522642294460288e+00  -9.203118000000003e-01  1.56733500e-02   2.38529364e+00   2.23357120e-01
C     8.742899073600000e+00   1.825356774695854e+00  -8.222901000000000e-01  7.35618460e-01   1.41663609e+00  -1.69463814e+00
C     1.003848409310000e+01   2.617228315816514e+00  -1.012865100000003e+00 -3.14211438e+00  -1.86774899e+00   8.05957730e-01
C     2.430462194800000e+00   3.908535308418541e+00  -1.120090500000000e+00  4.55078366e+00   4.76341921e+00   5.53769400e-02
C     3.686700391300000e+00   4.634390905617273e+00  -1.217087700000000e+00  2.80887275e+00   7.53451420e-01   2.96268014e+00
C     4.963758175000000e+00   3.967027017865912e+00  -8.977587000000007e-01  8.47005640e-01   2.02246516e+00  -2.41192318e+00
C     6.266402609400000e+00   4.638887633926146e+00  -9.832685999999988e-01 -1.81563320e+00   2.32922569e+00   1.16858335e+00
C     7.533396734800000e+00   3.984256691652037e+00  -9.683528999999993e-01 -1.60238831e+00  -4.28331840e-01  -2.68008810e-01
C     8.697829408000000e+00   4.778688825845335e+00  -1.042246799999997e+00  1.44591773e+00  -2.87437319e+00   1.57144898e+00
C     9.972740620400000e+00   4.028695580772262e+00  -8.955096000000005e-01 -1.36003091e+00   1.08179965e+00  -1.52622940e+00
C     1.119285508000000e+01   4.754854569013349e+00  -9.822470999999986e-01 -2.90326001e+00  -1.69197900e+00  -4.86907120e-01
C     3.839363362899999e+00   6.042389197565520e+00  -1.042976700000001e+00 -3.64037503e+00   2.20119380e+00  -1.55923555e+00
C     5.050762026199999e+00   6.824601410031205e+00  -9.132899999999999e-01 -3.12064943e+00   1.10382314e+00   4.57730080e-01
C     6.199457745000000e+00   6.133228642683542e+00  -8.470106999999985e-01  3.18391128e+00  -3.77209844e+00  -4.96308970e-01
C     7.432144542700000e+00   6.810651826340763e+00  -7.800060000000002e-01 -9.63601780e-01   9.74278490e-01  -8.61364160e-01
C     8.650357008300000e+00   6.180728681670743e+00  -9.674976000000015e-01 -3.37813130e-01  -2.10284661e+00   6.27079060e-01
C     9.831999325500000e+00   6.850790128222840e+00  -9.593294999999991e-01  4.37628389e+00   2.16964314e+00  -7.01496220e-01
C     1.110258125840000e+01   6.152399575112190e+00  -1.064132100000002e+00  1.85672233e+00   4.72090130e-01  -1.96058180e-01
C     1.240072938490000e+01   6.825976105328380e+00  -1.189545299999999e+00 -5.85645700e-02  -2.34095696e+00   1.16562082e+00
