64
Lattice="7.10842262195238 0 0 0 7.10842262195238 0 0 0 7.10842262195238 " PBC="1 1 1" Properties=species:S:1:pos:R:3:force:R:3 Energy="-511.76554848"
C     7.104191118182766e+00   7.062295283692332e+00   7.080664229668900e+00 -1.58291388e+00   1.61403826e+00   1.04340794e+00
C     1.762106172429538e+00   1.751295612224816e+00   7.832060042715999e-03 -1.73840480e-01   1.91843665e+00  -6.32351240e-01
C     6.109049483854200e-03   1.752624674002077e+00   1.767300439006424e+00  9.28561700e-02   3.34706790e-01  -5.95232240e-01
C     1.789766679781161e+00   1.022475509660800e-03   1.758803386027607e+00 -7.61331020e-01   7.47448490e-01   6.31212340e-01
C     8.643272521268137e-01   8.800856298961870e-01   8.222748901702868e-01  7.74529280e-01  -6.01145360e-01   2.21782782e+00
C     2.602557085986486e+00   2.714459296555050e+00   9.306961772660630e-01  2.58414747e+00  -2.40395205e+00  -1.35267793e+00
C     8.536836687694354e-01   2.650707479371806e+00   2.633947027265692e+00  1.67363160e+00   6.35133000e-02   4.70898920e-01
C     2.662049394167374e+00   8.878845646894937e-01   2.680558447153782e+00 -3.39432630e-01   5.41710270e-01  -2.90701100e-01
C     3.584344197823084e+00   5.200521988791999e-02   2.445873163512220e-02 -1.35953119e+00  -1.43530434e+00   4.67522500e-02
C     5.365209426462576e+00   1.842678365721583e+00   7.094990118111890e+00  2.01146000e-03  -1.68636098e+00   7.28544490e-01
C     3.576784177114036e+00   1.849894480944276e+00   1.830362739195528e+00 -1.08971386e+00  -1.91719195e+00  -1.45804652e+00
C     5.316580422982252e+00   4.607324121153000e-03   1.703058851504663e+00  4.18413470e-01   2.33672700e-02   2.68877860e+00
C     4.470981163258542e+00   9.717106384358438e-01   8.835126004412890e-01 -4.13489910e-01  -1.01712895e+00   1.19358680e-01
C     6.250412978476711e+00   2.715675121159975e+00   8.939484046054847e-01 -1.95415980e-01  -9.63043490e-01  -2.49148970e-01
C     4.482565119844320e+00   2.676162882942479e+00   2.697391334086395e+00 -7.96461230e-01   9.99579710e-01  -1.54602561e+00
C     6.271823760660829e+00   8.710535970309888e-01   2.685675729513694e+00 -3.33632786e+00   7.69848290e-01  -1.85249409e+00
C     2.169391065707320e-02   3.606809301250202e+00   7.076232199249556e+00  6.05432950e-01  -1.17312379e+00   7.75883860e-01
C     1.817828173252777e+00   5.328106374839451e+00   9.215501253020399e-03  3.57926550e-01   2.79997390e-01  -7.25425350e-01
C     3.814408011582480e-02   5.334833643838566e+00   1.714914847424108e+00 -1.86001136e+00   4.99241240e-01   1.73775803e+00
C     1.747097022404313e+00   3.571722127197881e+00   1.746307987493493e+00 -8.71959000e-02   2.25881450e-01   1.89324054e+00
C     9.440173612559429e-01   4.488526456306131e+00   8.467487627455896e-01 -1.52622986e+00  -1.16927761e+00   9.55730720e-01
C     2.708723083837615e+00   6.214771205291578e+00   9.349549754261572e-01 -5.88837520e-01   2.77903850e-01  -1.19958457e+00
C     8.327406918779390e-01   6.280087941714616e+00   2.646256114042936e+00  1.91012142e+00  -1.66673659e+00   3.72096520e-01
C     2.636628182109503e+00   4.403749488865904e+00   2.712295492709522e+00  8.38883100e-01   1.23797878e+00  -2.15983563e+00
C     3.537620322689146e+00   3.516501554506257e+00   7.106359044913414e+00  1.17112602e+00   1.48429680e-01   1.16773729e+00
C     5.286605626478235e+00   5.293513733748804e+00   1.079314456930320e-02  1.22937398e+00   3.27719770e-01  -1.47954122e+00
C     3.604561475849306e+00   5.306119810423112e+00   1.799240856533323e+00 -2.16458274e+00  -5.75776050e-01  -3.36907340e-01
C     5.354394387951603e+00   3.576090110729420e+00   1.799508630813418e+00  1.44209090e-01  -4.34907700e-01  -7.56980470e-01
C     4.485233479527416e+00   4.408788365324317e+00   8.729386796255866e-01 -2.02553451e+00   7.67101100e-02   1.49636086e+00
C     6.155169782823474e+00   6.171487095863458e+00   8.332724729741412e-01  1.98385893e+00   1.55278086e+00   1.32837766e+00
C     4.388094538645651e+00   6.215803206087551e+00   2.658958580927971e+00  2.87567932e+00   1.05859978e+00   4.86326520e-01
C     6.249104957630405e+00   4.440822756198252e+00   2.660391781096616e+00 -3.45535170e-01   8.34245050e-01   2.24600500e-02
C     7.024642253411097e+00   7.096836530887436e+00   3.600726908351172e+00  2.51321354e+00   3.22566040e-01  -1.03353457e+00
C     1.736272245354351e+00   1.744337390574776e+00   3.585289262610414e+00  4.79942240e-01  -1.80181280e-01  -2.00204046e+00
C     7.084634425870622e+00   1.762932028969529e+00   5.336166757416722e+00  1.56334158e+00  -1.30431480e-01  -5.84999400e-02
C     1.765098036426070e+00   7.079208140379419e+00   5.390911421213937e+00  3.61124100e-01   8.59930690e-01  -1.30642492e+00
C     8.425800993843168e-01   8.650344690932776e-01   4.458466643067580e+00  1.14811651e+00  -3.01680050e-01   6.48696350e-01
C     2.673274162158163e+00   2.594662613993167e+00   4.382931691296746e+00 -1.08882785e+00   1.74514877e+00   3.04289309e+00
C     8.795835620065363e-01   2.691510251715964e+00   6.167493157530185e+00  4.04090990e-01  -1.23592307e+00   1.56118476e+00
C     2.661220267752977e+00   8.922114615382879e-01   6.246758609491995e+00 -1.23400870e-01  -9.41905200e-02   5.00724400e-02
C     3.557866745248109e+00   3.886551392752860e-02   3.571189066585608e+00 -6.35788840e-01  -1.27223375e+00  -5.38730020e-01
C     5.364318527855612e+00   1.835918469062642e+00   3.514226930352084e+00  4.92162710e-01  -2.77213558e+00   2.33085225e+00
C     3.536028533611850e+00   1.784387736384607e+00   5.364488276987777e+00  6.20960970e-01  -1.15540321e+00  -1.70925396e+00
C     5.272387786059069e+00   7.074916003717236e+00   5.344806902942879e+00  7.91128790e-01   1.42083726e+00   4.58598420e-01
C     4.421136121920615e+00   8.998737724488381e-01   4.429389995761602e+00  1.32394488e+00   3.69990080e-01   9.18331890e-01
C     6.317359036448478e+00   2.648673830744451e+00   4.445892625379288e+00 -4.16009933e+00   1.06173673e+00  -7.07639980e-01
C     4.460947340393507e+00   2.646873480547483e+00   6.216454835189126e+00 -8.73920780e-01   8.43461820e-01  -1.48030440e-01
C     6.233165457252674e+00   8.846446167435239e-01   6.223493666351676e+00 -1.54094667e+00  -1.44947460e-01  -1.79879100e-01
C     2.194128376424920e-02   3.531078938941544e+00   3.521851211201617e+00  6.70083900e-02   1.69470684e+00   1.15487144e+00
C     1.803818609616377e+00   5.392396939373064e+00   3.546467820903129e+00 -1.18653084e+00  -1.23066300e+00   5.81292600e-01
C     7.091538197003392e+00   5.391389818056263e+00   5.335427765801146e+00  2.54217990e-01  -2.70454939e+00   2.41893040e-01
C     1.785648344052037e+00   3.537552721590030e+00   5.303617219155515e+00 -1.19320300e-02   5.05759640e-01  -2.11385470e-01
C     8.896757450212814e-01   4.496683513431034e+00   4.429200840635683e+00  6.98667180e-01  -7.77629500e-01  -6.21538100e-02
C     2.714284998032408e+00   6.229902335848963e+00   4.485147325445261e+00 -1.71217258e+00  -3.81893080e-01  -6.97788220e-01
C     8.451561917418048e-01   6.216589966303133e+00   6.256305292154882e+00  2.81689785e+00  -6.93395850e-01  -1.42731497e+00
C     2.704576385502238e+00   4.361301969695931e+00   6.240736211679878e+00 -1.23515587e+00   2.42959033e+00  -1.94308740e+00
C     3.524543739521620e+00   3.485932564955435e+00   3.540088722443941e+00  1.14607693e+00   2.06471742e+00   6.01410750e-01
C     5.326416063024641e+00   5.358871841191489e+00   3.575453480399572e+00  1.03627430e-01  -1.12778695e+00  -1.34423042e+00
C     3.602200626528751e+00   5.269639101200367e+00   5.319743671048152e+00 -2.52362856e+00   1.15833819e+00   9.58976110e-01
C     5.328292402259416e+00   3.541502800955738e+00   5.338079349606858e+00  1.32081091e+00   3.61752520e-01  -1.13865529e+00
C     4.435742366551738e+00   4.440578652965481e+00   4.405685681019140e+00  7.62296250e-01  -1.42123940e+00   1.14420022e+00
C     6.180056868005678e+00   6.222588479815244e+00   4.495008555809083e+00 -4.78028450e-01   1.38426530e-01  -1.24434547e+00
C     4.370786595829345e+00   6.173436012093184e+00   6.251130076150616e+00  2.51111274e+00   1.20092157e+00  -6.29018870e-01
C     6.243182006650742e+00   4.437296338820696e+00   6.223029770691495e+00 -1.82605027e+00   9.44802230e-01  -8.45833840e-01
