32
Lattice="9.86 0 0 4.93 8.53901048131456 0 0 0 30 " PBC="1 1 1" Properties=species:S:1:pos:R:3:force:R:3 Energy="-256.68951152"
C     4.976716186999999e+00   8.418335134534125e+00  -1.268801999999987e-01 -3.88752060e-01   1.17894947e+00   8.98772000e-03
C     1.285846987700000e+00   6.207132241366056e-01  -1.401935999999999e-01 -1.54620537e+00  -3.10681130e-01   8.46853500e-01
C     7.416248004200000e+00   8.440483449136940e+00  -1.151844000000004e-01  9.92581480e-01  -3.82281320e-01   4.75633000e-03
C     3.740108708200000e+00   5.851428659108032e-01  -1.473608999999989e-01 -8.56415190e-01   1.26448260e-01  -3.00879360e-01
C     9.874812579400000e+00   8.406192320071145e+00  -1.765197000000001e-01  1.43519308e+00   1.66394647e+00   2.10496870e-01
C     6.222762742400000e+00   6.251669158326592e-01  -1.649916000000005e-01 -2.01441635e+00  -2.37711526e+00   4.22008970e-01
C     1.234702477500000e+01   8.403033740094594e+00  -1.146962999999985e-01  4.94110710e-01  -5.76893610e-01  -8.71560190e-01
C     8.644890920100000e+00   5.660920773596088e-01  -1.272096000000005e-01  6.72137300e-01   1.21441526e+00  -1.61044350e-01
C     1.250509783000000e+00   2.043887814020853e+00  -6.991920000000107e-02  1.97787994e+00  -3.33665360e-01  -2.31809155e+00
C     2.527193478300000e+00   2.753063137367743e+00  -2.899808999999998e-01 -1.93760930e+00  -2.30591353e+00   1.51914374e+00
C     3.725711579900000e+00   1.990756126841883e+00  -2.336433000000007e-01  9.80485010e-01   1.94076325e+00   1.73757260e-01
C     4.954278918900000e+00   2.753986033620421e+00  -1.926957000000016e-01 -1.52950210e-01  -7.13891000e-01  -6.09063900e-02
C     6.170042505600000e+00   2.015632399122743e+00  -1.079700000000017e-01  1.18145550e+00   1.40306004e+00  -2.88856640e-01
C     7.429113381499999e+00   2.727035721084075e+00  -7.579319999999967e-02 -8.19402420e-01   5.65577610e-01  -7.00396820e-01
C     8.637568243200000e+00   2.022591692663942e+00  -1.835472000000031e-01  1.38624237e+00  -7.42251370e-01   8.46757360e-01
C     9.915660488799999e+00   2.734896648741858e+00  -2.078850000000010e-01 -1.77855638e+00   7.64908090e-01   5.10032050e-01
C     2.483165176600000e+00   4.126206127827784e+00  -2.825139000000014e-01  7.48978870e-01   2.87076364e+00  -3.96369670e-01
C     3.732864812699999e+00   4.869644230725674e+00  -1.998548999999983e-01 -5.13788370e-01  -2.79518950e-01  -1.32922414e+00
C     4.964509901400000e+00   4.194783262553083e+00  -2.195895000000014e-01  1.65917000e-03  -1.59100312e+00   3.72429560e-01
C     6.194604455800000e+00   4.899247869988472e+00  -1.880424000000005e-01  7.68317480e-01  -1.22189640e+00   9.88877520e-01
C     7.437148640600000e+00   4.162928142397024e+00  -9.415650000000042e-02 -9.16821110e-01  -3.86296960e-01  -2.24779780e-01
C     8.657183875099999e+00   4.865627480195882e+00  -1.040829000000016e-01  6.15418590e-01  -7.72388410e-01  -7.13421060e-01
C     9.922772556100000e+00   4.188039237466084e+00  -2.522142000000009e-01 -2.13485891e+00  -1.68582405e+00   3.20489770e-01
C     1.109830458200000e+01   4.884682538252317e+00  -3.552441000000002e-01  2.10411969e+00   2.77827660e-01   1.03600018e+00
C     3.751654866800000e+00   6.278286107893800e+00  -2.978871000000005e-01 -8.59187160e-01   1.96175630e-01   1.33267285e+00
C     4.957202113099999e+00   7.022204786301504e+00  -1.243680000000005e-01  5.36846490e-01  -1.36849277e+00  -5.83484060e-01
C     6.197251027700000e+00   6.291868172573183e+00  -7.140660000000310e-02 -4.83662690e-01   1.28717209e+00  -6.21880410e-01
C     7.413424050900000e+00   7.023057150327618e+00  -7.409459999999868e-02  6.38624730e-01  -1.23376673e+00  -5.68998400e-02
C     8.644301538600001e+00   6.248698436580600e+00  -1.219920000000023e-01  2.36184750e-01   3.17343587e+00   1.35706210e-01
C     9.877762642099999e+00   7.019697220483948e+00  -1.753871999999994e-01  1.43272820e-01  -1.61479795e+00  -9.02557300e-02
C     1.113698733400000e+01   6.332229769579314e+00  -2.522163000000006e-01 -2.44929901e+00  -2.87173225e+00  -4.48802600e-01
C     1.234645338800000e+01   6.928525437078045e+00  -2.563971000000009e-01  1.93841655e+00   4.10496681e+00   4.37882710e-01
