32
Lattice="9.86 0 0 4.93 8.53901048131456 0 0 0 30 " PBC="1 1 1" Properties=species:S:1:pos:R:3:force:R:3 Energy="-256.45395467"
C     9.888013985499999e+00   3.214723116556952e-01  -1.340709000000011e-01  1.56093169e+00  -4.94465110e-01   3.04541840e-01
C     1.300291444000000e+00   1.033514180820722e+00  -1.261058999999989e-01 -1.49435323e+00   3.05487990e-01  -1.11087006e+00
C     2.535015860000000e+00   3.240909699995968e-01  -1.329212999999996e-01 -1.98797334e+00   3.42508050e-01   4.88323920e-01
C     3.734502460099999e+00   1.071721385482748e+00  -1.820972999999988e-01  5.40534110e-01  -1.59176805e+00  -4.17945050e-01
C     4.934863346399999e+00   3.267626555985792e-01  -1.117340999999996e-01  2.01164020e+00  -1.29217983e+00  -4.81995160e-01
C     6.194518032900000e+00   1.006936766872036e+00  -1.549920000000000e-01 -3.28632630e-01   1.24492573e+00   8.75303390e-01
C     7.464533656700000e+00   3.262519373817704e-01  -1.183931999999999e-01 -1.39799539e+00   5.01871580e-01  -4.07064090e-01
C     8.685287044300001e+00   1.072299476492244e+00  -1.110962999999998e-01 -2.18619030e-01  -1.47637264e+00  -3.69311230e-01
C     1.112660228900000e+01   2.457827276972267e+00  -3.504308999999992e-01 -3.87026870e-01  -6.51062650e-01   7.84183580e-01
C     2.502256552300000e+00   3.137777153830519e+00  -4.648173000000000e-01 -8.98034490e-01   1.74111933e+00   2.82475490e-01
C     3.726031586200000e+00   2.455680740517805e+00  -3.891260999999986e-01  1.02086877e+00   1.51431388e+00   7.72052640e-01
C     4.967504038300000e+00   3.237297100832194e+00  -2.525204999999993e-01 -2.17253800e-01  -4.90956337e+00   1.38899030e-01
C     6.166621381400000e+00   2.459117350675586e+00  -8.874359999999726e-02  1.05057355e+00   9.10270100e-02  -7.36994990e-01
C     7.418476216300000e+00   3.177172561800838e+00  -7.588200000000001e-02  1.66551010e-01   5.03968660e-01  -1.49682710e-01
C     8.681435777599999e+00   2.484503828832626e+00  -1.517361000000008e-01 -2.01407777e+00  -4.88135780e-01   4.20618020e-01
C     9.865764698299998e+00   3.176985045130697e+00  -2.676647999999986e-01  1.99259161e+00   3.14347480e-01  -3.22565100e-01
C     1.234503990770000e+01   4.603695212304188e+00  -4.436105999999995e-01  1.38463166e+00  -1.89760009e+00  -5.86757100e-02
C     3.745613201099999e+00   5.249523801015093e+00  -3.611982000000005e-01 -3.95775590e-01   2.58526026e+00   3.46403430e-01
C     5.002698716700000e+00   4.585307136356347e+00  -2.029667999999987e-01 -1.90615409e+00   1.35279074e+00  -5.50831440e-01
C     6.203595247500000e+00   5.282419997328875e+00  -5.970000000000297e-02 -3.34214950e-01   5.66274720e-01   3.82421290e-01
C     7.419735338299999e+00   4.629480633030854e+00  -6.691529999999801e-02  1.85571140e+00  -1.62848234e+00  -2.11653850e-01
C     8.678994342999999e+00   5.362632302344116e+00  -1.548483000000012e-01 -1.33954412e+00  -2.27732718e+00   1.36740170e-01
C     9.867712048300000e+00   4.588894033098575e+00  -2.863025999999991e-01  1.02914055e+00   1.39535618e+00   8.56630000e-04
C     1.113641836270000e+01   5.313893765276896e+00  -3.596606999999992e-01 -1.18550046e+00  -2.00543466e+00   6.02030400e-02
C     1.359692516070000e+01   6.715377304569533e+00  -3.009608999999998e-01 -8.16118940e-01  -8.22705910e-01   4.44645630e-01
C     4.968210556600000e+00   7.390114627870374e+00  -1.567587000000010e-01 -1.04506516e+00   1.80553051e+00   5.74403420e-01
C     6.152299484899999e+00   6.666203534138148e+00   4.578840000000000e-02  1.93671785e+00   2.88531052e+00  -1.41080814e+00
C     7.385277497700000e+00   7.456982850428311e+00  -2.551619999999843e-02  1.44263937e+00  -1.29016548e+00   4.09071700e-02
C     8.665267941200000e+00   6.763869064233882e+00  -1.183199999999971e-01 -1.83296772e+00  -9.37882100e-01   3.81066660e-01
C     9.893082370600000e+00   7.380872515267451e+00  -1.349346000000011e-01  2.06237210e-01   3.53791816e+00  -4.53954400e-02
C     1.111721463230000e+01   6.680566491325926e+00  -2.358510000000003e-01  8.75951810e-01   2.87637550e+00  -5.02456000e-03
C     1.235364689890000e+01   7.459735827407063e+00  -2.288244000000006e-01  7.24586810e-01  -1.80124110e+00  -1.55227810e-01
