32
Lattice="9.86 0 0 4.93 8.53901048131456 0 0 0 30 " PBC="1 1 1" Properties=species:S:1:pos:R:3:force:R:3 Energy="-256.53468446"
C     9.838581171300000e+00   5.976010260308088e-01   7.813589999999999e-02 -1.07308694e+00  -2.24265940e-01  -4.51302070e-01
C     1.204412606800000e+00   1.267390846659538e+00   1.825500000000000e-03  8.00559490e-01   1.69046034e+00  -1.90954790e-01
C     2.456021779800000e+00   5.775272640241104e-01   6.141600000000001e-03 -4.03887570e-01   1.15917486e+00  -5.71918540e-01
C     3.679731540500000e+00   1.320556860660637e+00  -1.616982000000000e-01 -1.54868600e-02   4.36459840e-01   1.81156940e-01
C     4.947497703900000e+00   6.543734911081368e-01  -6.619469999999694e-02 -2.66156711e+00  -2.92242325e+00  -3.12213230e-01
C     6.127102057699998e+00   1.333888305382433e+00  -1.198109999999986e-02  1.99684436e+00   5.62961110e-01  -7.56152700e-02
C     7.366666698400000e+00   5.947485695799648e-01  -7.820399999999950e-03  6.95251270e-01   1.49985078e+00  -1.55279960e-01
C     8.632631045400000e+00   1.339746664302446e+00   1.836600000000000e-03 -1.90390303e+00  -1.12942600e-02   6.28032190e-01
C     1.105074073080000e+01   2.705203947599754e+00  -1.701791999999998e-01 -1.60502890e+00  -1.04545170e-01  -3.73018040e-01
C     2.381920330200000e+00   3.396441115460993e+00  -4.075799999999994e-01  1.85757875e+00   1.11706291e+00   8.34462000e-01
C     3.647327883000000e+00   2.759703669647725e+00  -3.593228999999987e-01  8.36841470e-01  -1.84412313e+00   1.56524828e+00
C     4.901764361700000e+00   3.463165711862656e+00  -1.217028000000013e-01 -1.48075389e+00   1.80908750e-01  -8.64304240e-01
C     6.113349822699999e+00   2.760504885001063e+00   1.062870000000000e-02 -1.18073320e-01  -6.62603610e-01   1.63198200e-02
C     7.322489658599999e+00   3.472753056659286e+00   6.641820000000001e-02  1.10401630e+00  -1.53919081e+00  -5.78751520e-01
C     8.571218035399999e+00   2.798010183001634e+00  -1.207799999999537e-03  4.56278040e-01  -2.43964128e+00   1.71432370e-01
C     9.796623765400000e+00   3.471700367447312e+00  -1.417664999999992e-01  7.20341840e-01  -7.72908100e-01  -1.17725010e-01
C     1.231246917250000e+01   4.822878802810068e+00  -3.679197000000016e-01 -2.16331064e+00   9.21202890e-01  -5.69058190e-01
C     3.636051987000000e+00   5.578187838077254e+00  -2.373072000000001e-01  1.71730036e+00  -5.68747790e-01  -4.75719000e-02
C     4.902366314700000e+00   4.886560181266764e+00  -1.047089999999997e-01  9.76742700e-02  -1.49435050e-01  -7.67457800e-02
C     6.171270420699999e+00   5.571938563257467e+00   2.854200000000000e-03 -2.98343589e+00   8.17180600e-01  -2.30351010e-01
C     7.364991730900000e+00   4.837914121683043e+00  -6.673200000001600e-03 -9.81189000e-02   2.49855668e+00   2.88253770e-01
C     8.575843903699999e+00   5.576465605053543e+00  -9.406440000000060e-02 -2.33577920e-01   1.02706308e+00  -1.96692300e-01
C     9.768392761299999e+00   4.881957825398254e+00  -2.718951000000018e-01  2.76313324e+00  -1.77093390e-01   6.46837500e-02
C     1.106433885400000e+01   5.552323858454173e+00  -4.133585999999987e-01 -7.89261550e-01   3.51191600e-02   7.91710030e-01
C     1.351359075780000e+01   6.997838463726510e+00  -1.760754000000020e-01 -1.24358979e+00   3.90253010e-01   8.33872520e-01
C     4.841706263599999e+00   7.706723546107185e+00   4.390110000000001e-02  1.29207491e+00  -1.00247000e-03  -5.77922370e-01
C     6.069138864499999e+00   7.005587871907425e+00   2.178690000000000e-02  2.14820237e+00  -3.50947160e-01   5.07553300e-01
C     7.330730104299999e+00   7.716163849143349e+00   5.252430000000000e-02  7.82507000e-03  -4.06788960e-01  -1.47032530e-01
C     8.561269837699999e+00   7.023013430593960e+00  -4.222409999999854e-02  1.09256461e+00  -8.94951110e-01  -2.43116940e-01
C     9.836777530799999e+00   7.706669067220323e+00  -1.102986000000001e-01 -5.88628630e-01   7.59258040e-01  -3.76528970e-01
C     1.104878406310000e+01   6.967527623615760e+00  -3.158643000000012e-01  5.41973360e-01   1.55281828e+00   1.24595872e+00
C     1.229165900160000e+01   7.735932085355073e+00  -1.339502999999986e-01 -7.66748770e-01  -1.57836887e+00  -9.72581030e-01
