72
Lattice="7.395 0 0 3.6975 6.40425786098592 0 0 0 13.6 " PBC="1 1 1" Properties=species:S:1:pos:R:3:force:R:3 Energy="-578.35706253"
C     3.643893016425000e+00   6.203099800404508e+00   1.354708906400000e+01  2.12066034e+00  -8.58004080e-01   2.11879060e-01
C     1.175860832250000e+00   5.288934579204276e-01   1.357752205600000e+01  1.21884965e+00  -1.29419088e+00   2.01506510e-01
C     1.419757212975000e+00   1.023296849178404e+00   3.532526288000000e+00 -3.53702670e-01   5.24685230e-01  -1.06050450e-01
C     2.647141524525000e+00   1.727697328645088e+00   3.502003128000000e+00  1.19800007e+00   4.77869970e-01   1.72400040e-01
C     6.080353505250000e+00   6.173464545455408e+00   6.537996000000000e-02  2.97689105e+00   1.23993982e+00  -8.76590860e-01
C     3.685020937500000e+00   5.327524075365493e-01   1.357720925600000e+01 -5.08248270e-01  -1.35842748e+00   7.45867060e-01
C     3.906146153550000e+00   1.039091093955315e+00   3.582189000000000e+00 -4.30071400e-01  -5.23351250e-01   1.15883110e-01
C     5.143853589300000e+00   1.797002478056386e+00   3.672752080000000e+00 -1.44409912e+00  -1.06002655e+00  -6.58874450e-01
C     8.656665460949998e+00   6.204044236311121e+00   4.372345600000000e-02 -1.90935026e+00  -9.16266020e-01  -6.73760090e-01
C     6.201027888375000e+00   5.203633066638007e-01   1.008196560000000e-01 -3.59109499e+00   7.03507420e-01  -6.11781420e-01
C     6.320352055424999e+00   1.062268551448705e+00   3.643045600000000e+00  2.34990379e+00  -1.17994412e+00  -1.88158410e-01
C     7.601227914600000e+00   1.746945005430425e+00   3.516557712000000e+00 -2.20375294e+00   1.15101303e+00   3.99522550e-01
C     1.254774356250000e+00   1.934700042048774e+00   1.357991878400000e+01 -3.70381484e+00  -6.61583230e-01   5.32264940e-01
C     2.453380914375000e+00   2.629339599983296e+00   1.346684036000000e+01 -3.65890410e-01  -8.67510810e-01   2.34477800e-01
C     2.666035897425000e+00   3.180637969771462e+00   3.510686999999999e+00 -2.89923110e-01  -2.95553270e+00   2.53218100e-02
C     3.885945638775000e+00   3.822775229641969e+00   3.652503720000000e+00  1.39676540e-01   3.27834180e+00  -1.97504880e-01
C     3.650508953175000e+00   1.974132658757259e+00   1.353122031200000e+01  3.62832835e+00  -2.16936475e+00   9.39712600e-01
C     4.918364324925000e+00   2.716102308022904e+00   1.625146960000000e-01 -1.54118653e+00  -3.98372176e+00  -7.38660540e-01
C     5.143369475625000e+00   3.209767096221886e+00   3.667885864000000e+00 -4.68178610e-01  -9.75583000e-01   4.19631700e-02
C     6.345939162150000e+00   3.951378683430578e+00   3.641423255999999e+00 -4.95839900e-02  -1.87365163e+00  -6.33196910e-01
C     6.164920691624999e+00   1.982761755797823e+00   1.972869040000000e-01 -3.09887733e+00  -3.00307918e+00   3.04936600e-02
C     7.333728098925000e+00   2.602933820145259e+00   1.902811360000000e-01  5.22976311e+00   2.74312964e+00  -9.71475750e-01
C     7.548157216424999e+00   3.220633969043892e+00   3.477857279999999e+00  1.92450941e+00  -2.22375316e+00   5.00437080e-01
C     8.845027832025000e+00   3.851356279704734e+00   3.466110960000000e+00 -2.06163970e+00   1.07226057e+00   6.65343560e-01
C     2.484758454000000e+00   3.983373843358510e+00   1.342037772800000e+01 -2.18994091e+00   4.17681736e+00   4.17085370e-01
C     3.678243346049999e+00   4.745995943371082e+00   1.346426356800000e+01 -1.07600360e+00   1.24737152e+00   1.04437957e+00
C     3.851827881900000e+00   5.278909994376018e+00   3.688793960000000e+00  3.88219850e-01   6.49173280e-01  -4.32061690e-01
C     5.094817344300000e+00   6.020525360096848e+00   3.631717344000000e+00 -1.00078214e+00  -3.29542760e-01  -6.31292500e-02
C     4.861023457949999e+00   4.069269671054188e+00   1.756105440000000e-01  2.30000670e+00   1.64568902e+00  -1.09667983e+00
C     6.136331214899999e+00   4.755333607501277e+00   1.704122160000000e-01 -4.80369260e-01   1.01203223e+00   3.64077260e-01
C     6.315884957774999e+00   5.338295844958276e+00   3.609250144000000e+00  7.75796890e-01   6.53030000e-04  -1.10859700e-02
C     7.574114664749999e+00   5.966350333922379e+00   3.575896960000000e+00  2.40269290e-01   2.68675431e+00   2.49345450e-01
C     7.380169327499999e+00   4.043289902448998e+00   1.839646160000000e-01 -8.74696130e-01  -4.10980500e-02  -9.31975920e-01
C     8.595030206550000e+00   4.702653847451961e+00   1.352689768800000e+01  1.83877498e+00   2.46879083e+00   9.22936020e-01
C     8.791243405425000e+00   5.249741353654598e+00   3.621629952000000e+00  9.12911160e-01   1.44822670e+00  -6.06324190e-01
C     1.001084385090000e+01   6.014447975558022e+00   3.665912776000000e+00  3.29163000e-01  -2.77246650e-01  -2.12866000e-02
C     7.365672317400000e+00   1.984872919401372e-01   7.097326464000000e+00  1.84679230e-01   8.38444580e-01  -1.03945214e+00
C     1.181725917675000e+00   8.944652116822424e-01   6.914451344000000e+00  2.70729874e+00   6.67966260e-01  -5.46251270e-01
C     1.050653462025000e+00   4.063007843888994e-01   9.862134248000000e+00  1.64022170e+00  -1.30518094e+00   6.69708530e-01
C     2.279719507500000e+00   1.127694385703886e+00   9.861923447999999e+00  1.32800834e+00  -1.11490022e+00   8.24122300e-02
C     2.467237850250000e+00   1.839351529751736e-01   6.782451647999999e+00 -1.06094943e+00  -4.18958900e-02   5.36630900e-01
C     3.677454151650000e+00   9.368608223322348e-01   6.739157408000000e+00  1.87263750e-01   1.04384750e-01   3.96105350e-01
C     3.559034984700000e+00   4.109868439076400e-01   9.995202767999999e+00 -1.02946563e+00   2.18425700e-01  -1.23816110e-01
C     4.800450273449999e+00   1.113585805638306e+00   9.979895560000001e+00 -2.43276282e+00   1.83947170e-01  -7.19518000e-01
C     4.903097014650000e+00   1.791424625630640e-01   6.909794295999999e+00 -8.70682830e-01   5.32457390e-01  -2.42494220e-01
C     6.126845611424999e+00   8.723638616370678e-01   7.006499272000000e+00  6.18167200e-02   9.91904940e-01  -4.00324600e-01
C     5.973547187475000e+00   4.115412605105803e-01   9.986735136000000e+00  9.46385400e-01  -1.98003415e+00   2.23936980e-01
C     7.210998793200000e+00   1.012250465008583e+00   9.900462040000001e+00  4.23727160e-01   4.24561150e+00   1.86627980e-01
C     8.631405176250000e+00   2.338351961344199e+00   6.839444623999999e+00  4.21212240e-01  -5.61807170e-01  -1.08163550e-01
C     2.472005665575000e+00   3.118203244149794e+00   6.731137896000000e+00 -1.33413765e+00  -1.13488068e+00   6.91969300e-01
C     2.304019440525000e+00   2.533908985100493e+00   9.745751976000001e+00  7.64212530e-01  -7.78337810e-01   5.90535200e-01
C     3.541180200900000e+00   3.212035164143005e+00   9.715643208000001e+00 -3.66728070e-01   1.70017779e+00   7.93281070e-01
C     3.665757702000000e+00   2.422964631935047e+00   6.698107847999999e+00  1.97296564e+00  -2.71044116e+00   2.94986040e-01
C     4.933653413475000e+00   3.074301416093708e+00   6.764645848000000e+00  3.53886650e-01  -3.16298620e-01   2.78516730e-01
C     4.762368057074999e+00   2.492561687419604e+00   9.762607136000000e+00  1.18546782e+00   2.01799305e+00   1.53023962e+00
C     5.989486888125001e+00   3.219715470381611e+00   9.942393559999999e+00  1.20658967e+00   1.00897423e+00  -5.60328900e-01
C     6.166111767299999e+00   2.280526252019215e+00   6.888651464000001e+00 -1.02330996e+00   2.20930517e+00  -2.55165730e-01
C     7.409128332374999e+00   3.020897974906211e+00   6.897851727999999e+00 -1.74065510e-01  -5.60443210e-01  -3.37870920e-01
C     7.250209153800000e+00   2.457528411605467e+00   9.924057904000000e+00 -9.27803770e-01   1.82598988e+00   1.28522500e-02
C     8.501165582475000e+00   3.217117647223280e+00   9.855964200000001e+00 -2.13927952e+00   2.96553310e-01   7.50485970e-01
C     9.877025372924999e+00   4.519772002767021e+00   6.925468976000000e+00 -4.89609480e-01  -1.34272788e+00  -3.96577490e-01
C     3.678552974700000e+00   5.226832746906171e+00   7.020907792000000e+00  2.20141651e+00  -1.59752701e+00  -1.11697625e+00
C     3.507773103524999e+00   4.659296573441710e+00   9.844465944000000e+00  1.70449886e+00   3.03006020e-01   1.64168890e-01
C     4.793920932150000e+00   5.399001100744852e+00   9.906628144000001e+00 -2.08659386e+00  -5.87803940e-01  -2.19156900e-02
C     4.965776923725000e+00   4.526413858593627e+00   6.816507543999999e+00 -2.80665622e+00  -2.68501552e+00   6.45178010e-01
C     6.179049985350000e+00   5.120692035433775e+00   6.822836167999999e+00  2.86605560e+00   3.36002519e+00   2.62115000e-02
C     6.007449084299999e+00   4.741782454039831e+00   9.977759680000000e+00  9.70325130e-01  -3.83331803e+00   4.32495000e-02
C     7.266896969625000e+00   5.401331418052370e+00   1.006080549600000e+01 -4.34834340e-01  -6.92876950e-01  -2.92174940e-01
C     7.481447217225000e+00   4.432106294369153e+00   6.865537176000000e+00 -5.21752657e+00  -9.03535760e-01  -2.35619410e-01
C     8.619426237599999e+00   5.138555431882673e+00   6.943878616000000e+00  1.80186617e+00   3.08470931e+00  -2.21639770e-01
C     8.502025768874999e+00   4.637607657602720e+00   1.000685810400000e+01 -1.84473523e+00   7.10601400e-01  -2.91452040e-01
C     9.669486213900001e+00   5.406280308313685e+00   9.965980856000000e+00  1.42281097e+00  -2.09034712e+00   1.17621000e-03
