72
Lattice="7.395 0 0 3.6975 6.40425786098592 0 0 0 13.6 " PBC="1 1 1" Properties=species:S:1:pos:R:3:force:R:3 Energy="-568.07510131"
C     3.701698917975000e+00   6.274748203724201e+00   1.355844248000000e+01 -4.78227525e+00  -4.18321279e+00   1.49589510e-01
C     1.115313863025000e+00   5.218246302222954e-01   2.260320000000000e-04  6.41769514e+00   1.51598512e+00   1.52759670e-01
C     1.371836540700000e+00   9.665028017520877e-01   3.763402336000000e+00  1.47597470e-01   3.22643530e-01   2.80269000e-01
C     2.639891133750000e+00   1.630646372481126e+00   3.920396928000000e+00 -9.01330990e-01   1.64316431e+00   1.74913210e-01
C     6.047729945100000e+00   6.226662025710127e+00   1.346491555200000e+01  3.36617062e+00  -9.32175430e-01  -1.44735906e+00
C     3.603897417750000e+00   5.838027963011244e-01   1.340740115200000e+01  1.97748819e+00  -2.08894694e+00   1.56505121e+00
C     3.856355951325000e+00   9.500942605612459e-01   3.808506464000000e+00  1.29802080e-01   1.87725765e+00  -1.19347087e+00
C     5.004331384800000e+00   1.748864361511067e+00   3.543359912000000e+00  3.69964198e+00  -2.36856363e+00   1.23287701e+00
C     8.650586142374999e+00   6.168414083664433e+00   1.325765631200000e+01 -1.14275248e+00   4.39952959e+00   1.78897227e+00
C     6.201985245075000e+00   5.572839813118579e-01   1.335658788000000e+01 -3.97723359e+00  -4.01216590e-01  -2.77299620e-01
C     6.346441800300000e+00   1.042046274702233e+00   3.468752896000000e+00 -1.51317472e+00  -1.56016955e+00   5.04559340e-01
C     7.572038888249999e+00   1.788988830196168e+00   3.785250328000000e+00 -1.52593656e+00  -8.48863294e+00  -1.79278441e+00
C     1.207400655150000e+00   1.908445274611075e+00   4.913843200000000e-02  8.35820580e-01   3.05737547e+00   1.69756460e-01
C     2.476767121200000e+00   2.613087194599081e+00   1.820467440000000e-01 -2.68581501e+00   3.64778852e+00   1.33691380e-01
C     2.707240245825000e+00   3.101402826420498e+00   3.988410392000000e+00 -4.36337565e+00   1.22618439e+00  -2.24702979e+00
C     3.825188836425000e+00   3.857939856784814e+00   3.471091551999999e+00  2.34323470e-01  -5.38786848e+00   3.28485853e+00
C     3.730348516050000e+00   2.055520209132390e+00   2.196284400000000e-01 -2.88753442e+00  -6.00504433e+00  -3.25073072e+00
C     4.809162396900000e+00   2.648786321102922e+00   1.327244726400000e+01  4.54640989e+00   2.69492576e+00   1.39721347e+00
C     5.046169447724999e+00   3.140440236376443e+00   3.624962632000000e+00  2.41071686e+00   7.53902240e-01  -1.89191829e+00
C     6.390133456950000e+00   3.793048393805471e+00   3.601966392000000e+00 -6.12641628e+00   3.58189835e+00  -4.34085100e-02
C     6.065297248275000e+00   1.963338282134229e+00   1.321840739200000e+01  3.80056852e+00   5.78686650e-01   1.20005198e+00
C     7.467913405875001e+00   2.736744127701785e+00   1.344222408800000e+01 -4.08028776e+00  -1.62188188e+00  -2.70680979e+00
C     7.491138179850000e+00   3.083816542209203e+00   3.856445920000000e+00  4.28455713e+00   5.64707874e+00   1.19490478e+00
C     8.730058062824998e+00   3.883784111293687e+00   4.024872536000000e+00  2.83412511e+00  -1.54157087e+00  -3.27285317e+00
C     2.420298605400000e+00   4.119035365692047e+00   1.035289120000000e-01  3.60415117e+00  -2.75291093e+00   5.72081600e-01
C     3.712401035925000e+00   4.825826106319819e+00   1.048565440000000e-01 -7.37486900e-01  -2.02167110e-01  -1.91650606e+00
C     3.821924757375000e+00   5.175478860361610e+00   3.419844440000000e+00  5.80312250e-01   4.51909917e+00  -5.67678670e-01
C     5.036446945424999e+00   5.934663795180721e+00   3.534379016000000e+00  1.67849890e+00   1.50954485e+00   5.44688440e-01
C     4.929930030975000e+00   4.094200358179331e+00   1.334886620800000e+01 -2.13200381e+00  -1.35951573e+00   2.18384160e-01
C     6.148414127250000e+00   4.707454479143817e+00   1.311816736800000e+01 -1.92444360e-01   5.27971846e+00   1.53955230e+00
C     6.341404104450000e+00   5.329613912790368e+00   3.598375312000000e+00 -1.22875189e+00  -4.11847441e+00   5.37261040e-01
C     7.567954296975000e+00   5.983208069759521e+00   3.744934896000000e+00 -7.18233680e-01  -5.49073600e-02  -1.71687623e+00
C     7.434150793874999e+00   4.139830951602146e+00   1.307885140000000e+01  6.05821490e-01  -2.77691213e+00   3.60062594e+00
C     8.654477206499999e+00   4.799685398714606e+00   1.349467099200000e+01 -2.54948492e+00   1.13883892e+00  -2.71914881e+00
C     8.750857202850000e+00   5.267667447787946e+00   3.485838712000000e+00  9.93512920e-01  -2.91080572e+00   3.01113728e+00
C     1.001364422647500e+01   5.859464358962815e+00   3.333729648000000e+00 -6.80704220e-01   5.32872171e+00   1.08508029e+00
C     7.395836041725000e+00   1.529979124031358e-01   6.810381015999999e+00  5.79657250e-01   1.17776700e+00   9.86696500e-02
C     1.246643184000000e+00   8.687725459569157e-01   6.972641800000000e+00  3.85900130e-01   3.63875630e-01   1.37803530e-01
C     1.101955793850000e+00   4.838571796270212e-01   9.885134296000000e+00 -2.12439534e+00  -1.13189836e+00  -1.16826695e+00
C     2.381385449850000e+00   1.178233202350604e+00   1.012032521600000e+01 -4.49278901e+00  -2.08256259e+00  -1.00059110e+00
C     2.462161737375000e+00   7.954837560289621e-02   7.060461487999999e+00  1.08486225e+00   6.40850567e+00  -6.93607810e-01
C     3.703661070299999e+00   8.946827643217465e-01   7.086792720000000e+00 -4.20770540e-01   4.12357000e-02  -4.10117040e-01
C     3.523843362900000e+00   4.956250034447712e-01   9.916367512000001e+00  3.69019702e+00  -3.75062896e+00   1.12470610e+00
C     4.785559775399999e+00   1.089795268539978e+00   9.995631575999999e+00  2.24587780e-01   2.62385729e+00  -1.97862272e+00
C     4.949117800500000e+00   1.892792499890292e-01   6.880960664000001e+00 -2.78157299e+00  -6.27180270e-01   3.51057000e-03
C     6.134073151650000e+00   8.324034059957616e-01   6.769408159999999e+00  3.49756085e+00   3.26300856e+00   1.42613412e+00
C     6.037308319499999e+00   3.814682104941708e-01   9.705114903999998e+00 -1.62504592e+00   3.97213725e+00   1.02651744e+00
C     7.184265683325000e+00   1.190198341353021e+00   9.682411471999998e+00  3.91248260e+00  -3.41812820e+00   2.18380365e+00
C     8.697773267624999e+00   2.371570398565969e+00   7.066629767999999e+00 -2.34788025e+00  -4.69913996e+00   1.94419490e-01
C     2.423213640450000e+00   3.096411539972150e+00   7.262571224000000e+00  5.04162014e+00  -6.87504110e-01  -2.44773934e+00
C     2.317799579325000e+00   2.518425026616899e+00   1.021357796800000e+01 -1.15331766e+00   5.34520060e+00  -1.20688757e+00
C     3.546234387599999e+00   3.319783728593732e+00   1.020065783200000e+01 -9.93858800e-02  -1.48644457e+00  -2.04433879e+00
C     3.721873365375000e+00   2.360409570308189e+00   7.152396808000000e+00 -1.90652672e+00  -2.19366903e+00   1.00850920e-01
C     4.952688624149999e+00   3.009989026110066e+00   7.054202768000001e+00  1.20549133e+00   1.09071883e+00  -6.92828980e-01
C     4.734074676150000e+00   2.562210105052197e+00   9.905314111999999e+00  2.36472125e+00   3.58537530e-01   1.41806894e+00
C     6.061217759549999e+00   3.291657765094499e+00   9.710833704000001e+00 -4.28855507e+00   2.99532570e-01   1.71237030e+00
C     6.228586797900000e+00   2.276129088572540e+00   7.018866839999999e+00 -2.63479164e+00  -1.17041686e+00  -1.38190089e+00
C     7.441943349075000e+00   2.954963322364053e+00   7.075174648000000e+00 -9.39500780e-01   3.02164318e+00  -1.06287001e+00
C     7.214561334450000e+00   2.548440438312569e+00   9.833813744000000e+00 -3.29220200e-01   1.17573642e+00  -8.61977670e-01
C     8.394810655499999e+00   3.232020419306078e+00   9.870653967999999e+00  5.01599012e+00   2.14194761e+00   2.66364640e+00
C     9.912588371624999e+00   4.460296428532144e+00   6.930448072000000e+00 -2.55254531e+00   6.39214920e-01   1.26857634e+00
C     3.724706796600000e+00   5.152365701617135e+00   6.903632408000000e+00  5.36565170e-01   8.72924100e-02  -9.22823650e-01
C     3.559802733600000e+00   4.751751193739550e+00   9.902235344000001e+00 -1.85236227e+00  -4.03997827e+00   7.97889210e-01
C     4.687583346449999e+00   5.399406234097076e+00   9.740742144000000e+00  8.02589355e+00   3.64133525e+00   1.18886565e+00
C     4.930423166550000e+00   4.451496529934454e+00   6.913596719999999e+00  2.05698946e+00  -1.01753570e+00   6.40021100e-01
C     6.219065661449999e+00   5.157635253069500e+00   6.929998999999999e+00 -2.62624674e+00  -3.92135245e+00   8.77520600e-02
C     6.033549256125000e+00   4.696440500518768e+00   9.766502855999999e+00 -6.78968580e-01   9.27786550e-01   5.01085200e-02
C     7.293207603150000e+00   5.446440897013116e+00   9.807250496000000e+00 -2.51406730e+00  -1.64778310e-01   4.96899890e-01
C     7.386308434649999e+00   4.408405096667972e+00   7.019975376000000e+00  3.31798677e+00   5.86483860e-01  -6.40528040e-01
C     8.673735080624999e+00   5.191310570047002e+00   6.904285480000000e+00 -1.80486898e+00  -2.55504498e+00   2.25127330e-01
C     8.489680223099999e+00   4.723065626188510e+00   9.888749991999999e+00  7.10776290e-01  -1.20863910e+00  -6.86778210e-01
C     9.795432492525000e+00   5.449178268950216e+00   9.789673720000000e+00 -4.44167805e+00  -2.97169818e+00   1.02426618e+00
