72
Lattice="7.395 0 0 3.6975 6.40425786098592 0 0 0 13.6 " PBC="1 1 1" Properties=species:S:1:pos:R:3:force:R:3 Energy="-570.71024201"
C     3.685060759575000e+00   6.227577770541528e+00   1.354422340800000e+01  1.00605660e-01  -5.11723850e-01   8.76844870e-01
C     1.121705953125000e+00   6.232469406737574e-01   3.266434400000000e-02  3.62028268e+00  -6.17880193e+00  -5.00267250e-01
C     1.431256401000000e+00   9.723478398157525e-01   3.753600680000000e+00 -2.02319878e+00   1.74684940e-01  -1.87975050e-01
C     2.628409989525000e+00   1.718283325761202e+00   3.905903000000000e+00 -8.26139920e-01   2.56493520e-01   1.43218710e-01
C     6.033995211599999e+00   6.202481341222967e+00   1.346773156800000e+01  3.87597503e+00   1.03221746e+00  -4.37054950e-01
C     3.612887630175000e+00   5.811849278156922e-01   1.342304196800000e+01  1.72972499e+00  -1.32024183e+00   1.33616704e+00
C     3.792744789900000e+00   9.345444022642728e-01   3.801751752000000e+00  2.91041330e+00   4.58541261e+00  -1.45911891e+00
C     5.015530446749999e+00   1.733246682123357e+00   3.517552280000000e+00  2.45218821e+00  -1.39251725e+00   2.13217276e+00
C     8.703027747899998e+00   6.210302989432543e+00   1.327213691200000e+01 -4.01422828e+00   6.48580070e-01   2.13356743e+00
C     6.236624571299999e+00   5.584475709224412e-01   1.341086534400000e+01 -4.65274891e+00  -3.45536490e-01  -6.30508520e-01
C     6.341518024425000e+00   1.056050145151802e+00   3.474418792000000e+00 -2.25989805e+00  -2.39654797e+00   2.64698400e-02
C     7.559721887174999e+00   1.705933354903978e+00   3.740474503999999e+00  6.66221720e-01   2.09873780e-01  -5.61363030e-01
C     1.214436664875000e+00   1.951972005284301e+00   7.405131999999999e-02 -3.83095900e-02   3.04132984e+00   1.36773360e-01
C     2.447744075625000e+00   2.685443460540040e+00   1.654376080000000e-01 -3.97508030e-01  -7.88110630e-01   2.67430060e-01
C     2.664193174350000e+00   3.197992291763069e+00   3.951040312000000e+00 -1.99826617e+00  -1.90405342e+00  -1.98575793e+00
C     3.883255892399999e+00   3.818009116899978e+00   3.484175159999999e+00 -2.65527439e+00  -2.21358000e-03   2.88706055e+00
C     3.690995949600000e+00   2.063644650653586e+00   2.056553920000000e-01 -1.10228012e+00  -5.30573400e+00  -3.48879241e+00
C     4.850805305774999e+00   2.690537279156727e+00   1.335714956000000e+01  2.53909405e+00  -2.57605513e+00   1.39295711e+00
C     5.106827526825000e+00   3.172265427300770e+00   3.664507624000000e+00 -2.41524679e+00  -4.10251896e+00  -2.08730969e+00
C     6.296002834724999e+00   3.776478849572029e+00   3.602131496000000e+00  3.00561634e+00   4.64288436e+00   6.44073100e-01
C     6.128855350575000e+00   1.984312867051515e+00   1.331282512000000e+01  1.58064080e+00  -9.15656350e-01   1.01553253e+00
C     7.410598273500000e+00   2.659096023491107e+00   1.348854827200000e+01 -2.42870996e+00   6.03940310e-01  -2.22051396e+00
C     7.519636698075000e+00   3.137436511354946e+00   3.821398176000000e+00  2.38152100e-01  -1.17827548e+00   1.82938710e-01
C     8.706200498699999e+00   3.906729862737702e+00   3.956248160000000e+00  4.09921894e+00  -2.80261291e+00  -2.05366540e+00
C     2.456111887875000e+00   4.055545410502787e+00   7.037823200000000e-02 -9.04038260e-01   2.70882725e+00   3.07249350e-01
C     3.695810501325000e+00   4.783365236282233e+00   9.686953599999999e-02  4.70759660e-01   1.64977120e-01  -2.05492365e+00
C     3.845274174075000e+00   5.184089000798909e+00   3.417578408000000e+00  1.03069802e+00   4.22411213e+00  -4.73077030e-01
C     5.117405815500000e+00   5.930747911712224e+00   3.511599696000000e+00 -1.13208915e+00   1.93452362e+00   7.11381580e-01
C     4.930403532824999e+00   4.026974222997126e+00   1.338561449600000e+01 -1.05995596e+00   4.04421777e+00   7.79044360e-01
C     6.169533470774999e+00   4.715036544066849e+00   1.324366898400000e+01 -1.98620636e+00   3.26951984e+00   2.14993790e-01
C     6.352181318625000e+00   5.309396375194712e+00   3.601672632000000e+00 -1.78019242e+00  -4.26462330e+00   2.56397170e-01
C     7.533447563099999e+00   5.989531698013064e+00   3.741152464000000e+00  1.97492536e+00  -2.31899585e+00  -1.81111994e+00
C     7.405120427249999e+00   4.045732742567115e+00   1.313595630400000e+01  3.64165760e-01   6.89035800e-01   3.51821717e+00
C     8.580915222150001e+00   4.769935443507235e+00   1.350921360800000e+01  2.30552092e+00   1.74310449e+00  -2.56679045e+00
C     8.787888811574998e+00   5.198016724622522e+00   3.505495880000000e+00 -5.75295440e-01   4.66544930e+00   1.78176243e+00
C     1.003438723845000e+01   5.963003853020214e+00   3.357787232000000e+00 -7.06935920e-01  -3.59684450e-01   1.02910882e+00
C     7.403201461725001e+00   1.290768565296210e-01   6.873503512000000e+00  6.10023800e-01   3.37520582e+00   1.40877710e-01
C     1.241491937925000e+00   8.544444919744734e-01   7.009195880000000e+00 -5.17323020e-01   2.23913304e+00  -3.36364490e-01
C     1.077178217775000e+00   4.407355823060190e-01   9.866874935999999e+00  1.84064940e-01   1.02869932e+00  -8.77044110e-01
C     2.332873991025000e+00   1.185455604152220e+00   1.008008852800000e+01 -6.34820110e-01  -2.64791986e+00  -8.20350820e-01
C     2.442527457750000e+00   1.524729553863516e-01   7.002620687999999e+00  2.94694339e+00  -1.01015900e-01  -6.87926370e-01
C     3.771771719474999e+00   8.858437997511102e-01   6.988280440000000e+00 -3.17787872e+00  -2.89151710e-01   2.21308840e-01
C     3.602526088949999e+00   4.635956447798676e-01   9.962870536000000e+00 -6.42377777e+00  -3.52361623e+00   9.37756560e-01
C     4.737858586725000e+00   1.061187768892251e+00   9.982783520000000e+00  6.95010899e+00   4.93105163e+00  -1.65275561e+00
C     4.991086607025000e+00   1.733993162419518e-01   6.904660160000000e+00 -1.02632912e+00  -3.65782740e-01  -4.42191140e-01
C     6.189663252374999e+00   8.897082570289915e-01   6.860436632000000e+00  8.21457520e-01  -1.51264019e+00   4.25609050e-01
C     6.040998572400000e+00   4.121549805413040e-01   9.714606208000001e+00 -2.29975825e+00   3.32461711e+00   7.42635450e-01
C     7.220719668600000e+00   1.132083735955973e+00   9.644387368000000e+00  1.91422232e+00   5.84576190e-01   2.35102996e+00
C     8.611636788300000e+00   2.397049930589715e+00   7.086591984000000e+00  3.49637382e+00  -4.32290302e+00   3.95421350e-01
C     2.462261902650000e+00   3.103841503771008e+00   7.226940447999999e+00  6.58704500e-01  -5.82447242e+00  -2.25520226e+00
C     2.311159128150000e+00   2.574423152876375e+00   1.014585309600000e+01 -7.27264690e-01  -4.80209150e-01  -6.73034490e-01
C     3.541667198624999e+00   3.235306379971466e+00   1.013144294400000e+01  1.12310111e+00   2.58244134e+00  -1.97190761e+00
C     3.694486426575000e+00   2.308483975664467e+00   7.052153112000000e+00  1.31419039e+00   1.11889251e+00   5.73347130e-01
C     4.955577480900000e+00   3.067455072313632e+00   7.017820592000001e+00 -8.05114540e-01  -4.26601853e+00  -4.38920490e-01
C     4.758863936325000e+00   2.505168853272485e+00   9.897360016000000e+00  6.66473700e-02   1.99873385e+00   8.27311260e-01
C     6.005049037049999e+00   3.308055995430186e+00   9.658489751999999e+00 -6.45726700e-01  -3.46392814e+00   2.25651001e+00
C     6.236115980175000e+00   2.242007266737038e+00   7.017352480000000e+00 -1.88738778e+00   4.95322609e+00  -8.35168940e-01
C     7.447272814650001e+00   3.033924427521188e+00   7.070816527999999e+00 -3.37106341e+00   1.55790903e+00  -1.08792384e+00
C     7.222221038475000e+00   2.527688273270761e+00   9.780659912000001e+00  9.05377110e-01   2.25705353e+00  -6.22186550e-01
C     8.477368879200000e+00   3.240907351768086e+00   9.871199464000000e+00 -8.13454540e-01   1.99631482e+00   1.65932628e+00
C     9.861094620225000e+00   4.401622026955554e+00   6.947686343999999e+00  1.29483526e+00   4.49918438e+00   5.87070290e-01
C     3.692973557475000e+00   5.185469374538053e+00   6.931231703999999e+00 -7.07093740e-01  -3.33949549e+00  -7.76041750e-01
C     3.493990487400000e+00   4.730539779366601e+00   9.838687304000000e+00  2.89363897e+00  -2.07264433e+00   5.90735390e-01
C     4.704846752100000e+00   5.446764312035047e+00   9.712780000000000e+00  3.45931485e+00  -2.05952709e+00   1.78689995e+00
C     4.872314476725000e+00   4.437749982565700e+00   6.933424703999999e+00  3.83301389e+00   8.74963810e-01   7.62864000e-02
C     6.192971035875000e+00   5.099227460747620e+00   6.913426720000000e+00 -3.71822213e+00   3.65289842e+00   3.07852610e-01
C     6.016476789375000e+00   4.666714241065477e+00   9.774923295999999e+00 -5.47721670e-01   3.62511977e+00  -2.54860900e-02
C     7.305307930725000e+00   5.422849852547127e+00   9.869867207999999e+00 -3.48097614e+00  -3.75562410e-01   1.41753330e-01
C     7.403659618950000e+00   4.515194303291272e+00   6.986342983999999e+00  2.34853253e+00  -3.96715067e+00  -8.42149000e-02
C     8.686737265425000e+00   5.141017676902107e+00   6.928058415999999e+00 -2.41096735e+00   1.59430106e+00  -1.76007730e-01
C     8.479075090575000e+00   4.734487427954084e+00   9.924793663999999e+00  1.84178103e+00  -1.60738582e+00  -8.48192940e-01
C     9.761958840149999e+00   5.503976621542199e+00   9.787269375999999e+00 -3.41605489e+00  -5.87991629e+00   1.29610465e+00
