32
Lattice="9.86 0 0 4.93 8.53901048131456 0 0 0 30 " PBC="1 1 1" Properties=species:S:1:pos:R:3:force:R:3 Energy="-249.63305732"
C     1.180277890400000e+00   1.074333554178685e+00   3.695797800000000e+00 -3.86976005e+00  -9.73880760e-01   1.18160510e+00
C     2.362096553700000e+00   1.692246495218479e+00   3.537631500000000e+00  3.03203817e+00   2.23518830e+00  -2.36801700e-01
C     3.578550784100000e+00   1.038317459605826e+00   3.989490300000000e+00  3.34000405e+00   1.54750907e+00  -3.94564960e-01
C     4.874392114300000e+00   1.886071103181065e+00   3.939805800000000e+00 -1.23071670e+00  -4.70973539e+00   1.51415728e+00
C     6.079311081399999e+00   1.011402583962971e+00   4.242618300000000e+00 -2.52263242e+00   3.18049910e-01  -4.26743060e-01
C     7.270826561700000e+00   1.659210088352617e+00   4.167725400000000e+00  3.65339718e+00   2.32427839e+00  -2.13205541e+00
C     8.568109423899999e+00   1.056363462793839e+00   3.855707999999999e+00 -2.06964501e+00  -2.21432434e+00   2.00244368e+00
C     9.727932793599999e+00   1.791124223241954e+00   3.508213500000000e+00 -1.41164000e-01  -8.55239540e-01   1.72396649e+00
C     2.368218479800000e+00   3.125003733443592e+00   3.094757700000000e+00  1.49322360e+00   7.34672740e-01   1.96675694e+00
C     3.679796074200000e+00   3.944443042948408e+00   3.195950700000000e+00  1.16369590e-01  -2.12392282e+00   2.41084382e+00
C     4.901392590400000e+00   3.294894861272414e+00   3.833921399999999e+00 -2.40053375e+00  -2.47261923e+00  -1.70002970e+00
C     6.125917970300000e+00   3.858386297600235e+00   4.208151300000000e+00 -1.97364200e+00   9.50788200e-01  -1.12454235e+00
C     7.272704053599999e+00   3.067831301115381e+00   4.075185900000000e+00  1.85244138e+00   2.96665543e+00  -3.29941600e-02
C     8.463083563300000e+00   3.942839672950578e+00   3.754363200000000e+00 -7.69782390e-01  -2.20362970e+00   2.19723865e+00
C     9.656360729799999e+00   3.263003364931711e+00   3.503847600000000e+00  2.28606396e+00  -3.46182513e+00  -1.23415801e+00
C     1.096344600960000e+01   3.821708258934966e+00   3.282536400000000e+00 -9.16281760e-01   2.50263435e+00   4.87182620e-01
C     3.712617006900000e+00   5.352644136395556e+00   3.333953700000000e+00 -1.71786073e+00  -2.05213850e-01   2.00100705e+00
C     4.919213850200000e+00   6.002874841179216e+00   3.968527500000000e+00 -3.05205949e+00   1.87628393e+00  -1.30957058e+00
C     6.054836589399999e+00   5.273556760620949e+00   4.312204200000000e+00  4.53329710e-01  -2.41304210e-01  -1.38185271e+00
C     7.229924816700000e+00   5.979566843563112e+00   4.348389300000000e+00  2.71934173e+00   3.95517795e+00   1.87561113e+00
C     8.490782275299999e+00   5.314482786219807e+00   4.162577100000000e+00 -1.43842390e+00  -4.61492710e-01  -9.36427770e-01
C     9.713050060299999e+00   5.965805886614174e+00   4.102066500000000e+00  2.88464676e+00   1.52608890e+00  -6.35753510e-01
C     1.089208830220000e+01   5.265928179438327e+00   3.572238600000000e+00  3.17460461e+00  -2.80324450e-01  -4.12805860e-01
C     1.222533566230000e+01   5.917322922130620e+00   3.479114400000000e+00 -6.64040680e-01   4.30023787e+00   1.79528058e+00
C     4.854306751999999e+00   7.488537312025370e+00   4.037752800000000e+00  2.37474010e-01  -2.04274156e+00   1.51313367e+00
C     6.088867048300000e+00   8.271949767804122e+00   4.267868100000000e+00 -5.91435940e-01  -1.50763900e+00  -1.72347982e+00
C     7.275292747300000e+00   7.493226509630461e+00   4.510149000000000e+00  2.33830673e+00  -5.37818300e-01  -1.54587445e+00
C     8.691452946000000e+00   8.202508229047933e+00   4.428411000000000e+00 -5.34474555e+00  -3.82685090e-01  -1.02267455e+00
C     9.886489826700000e+00   7.422569271952234e+00   4.362038100000000e+00 -4.19298154e+00  -2.33448957e+00  -3.66551520e-01
C     1.103932324520000e+01   8.088124597283931e+00   4.242075000000000e+00  9.27462220e-01   2.57670961e+00  -7.84680980e-01
C     1.221929138370000e+01   7.431015890338841e+00   3.913198800000000e+00  3.21241460e-01  -4.08681206e+00  -1.17968110e-01
C     1.340979167840000e+01   8.083739815402451e+00   4.124529600000000e+00  4.06576074e+00   3.28142306e+00  -3.14969782e+00
