32
Lattice="9.86 0 0 4.93 8.53901048131456 0 0 0 30 " PBC="1 1 1" Properties=species:S:1:pos:R:3:force:R:3 Energy="-255.03945952"
C     1.196485561200000e+00   7.859148127999167e-01   3.696153000000000e+00  8.64230110e-01  -1.53862322e+00  -8.61983000e-03
C     2.467455583700000e+00   1.459037750779409e+00   3.829485900000000e+00  5.09597550e-01   4.70965750e-01  -2.35676870e-01
C     3.763323042900000e+00   7.457743761652185e-01   3.552170400000000e+00 -4.07696763e+00   6.97967470e-01   7.31148760e-01
C     4.902675770800000e+00   1.543412481843232e+00   3.545240700000000e+00  3.22087030e-01  -6.28740330e-01   3.99424100e-02
C     6.091709883499999e+00   8.409052717801736e-01   3.367360800000000e+00  3.71100280e+00  -2.79893818e+00   5.76066670e-01
C     7.427455323899999e+00   1.466738913551111e+00   3.434677500000000e+00 -4.45967714e+00   2.08960456e+00   7.05538520e-01
C     8.609634419499999e+00   8.008240104881016e-01   3.531529200000000e+00 -7.44691420e-01  -3.65820310e+00   7.62377650e-01
C     9.769998906000000e+00   1.449908780065346e+00   3.792978000000000e+00  4.37781065e+00   2.01314519e+00  -5.80889600e-01
C     2.476995873200000e+00   2.906222159551111e+00   4.098548700000000e+00 -1.52786896e+00  -1.75705760e+00  -9.15806570e-01
C     3.690698867800000e+00   3.624253205276704e+00   4.002183900000000e+00 -1.10464638e+00   1.63590147e+00  -7.20155600e-01
C     4.866113608999999e+00   2.934563818455068e+00   3.743293200000000e+00  2.87042599e+00   9.20180020e-01  -1.70846980e-01
C     6.173478173299999e+00   3.652002171463245e+00   3.608944500000000e+00 -1.01405074e+00  -2.15592778e+00  -1.08798710e-01
C     7.398339976400001e+00   2.901933526927635e+00   3.598930500000000e+00 -2.09027780e-01  -8.78198060e-01  -1.14401740e+00
C     8.630766272899999e+00   3.580142128768806e+00   3.591936300000000e+00 -6.22091970e-01   1.89342845e+00   1.66266230e-01
C     9.854371320400000e+00   2.889423364233807e+00   3.826794599999999e+00 -1.40115544e+00  -8.66468530e-01   1.32736980e-01
C     1.104040562670000e+01   3.582488819628920e+00   4.060811999999999e+00  2.23585876e+00   1.44406750e-01  -1.73151050e-01
C     3.622036884400000e+00   5.079361047262902e+00   3.831407700000000e+00  1.71805025e+00  -1.01766921e+00   3.20023570e-01
C     4.891198977300000e+00   5.763420749865179e+00   3.619351800000000e+00  5.55173730e-01  -1.01744549e+00  -3.74353960e-01
C     6.198787117099999e+00   5.020971208210558e+00   3.457657800000000e+00 -2.68129750e+00   2.53752845e+00   5.30310230e-01
C     7.402990149600000e+00   5.781599193105736e+00   3.279010500000000e+00 -2.66443110e-01  -3.04575129e+00   9.23215750e-01
C     8.584451387900000e+00   5.016012263264402e+00   3.409405200000000e+00  3.10974871e+00  -3.87600930e-01   7.41678010e-01
C     9.901320647099999e+00   5.688217513787609e+00   3.530457900000000e+00 -3.41513101e+00  -4.42044700e-02   5.93012300e-02
C     1.106113006490000e+01   5.007203420053234e+00   3.957237300000000e+00 -1.85733764e+00  -3.72045730e-01  -1.64744250e+00
C     1.220827046730000e+01   5.740499825594134e+00   3.781730400000000e+00  4.15499637e+00   3.64099250e-01   6.19491340e-01
C     4.914842172699999e+00   7.181282623599084e+00   3.554002200000000e+00  4.32338700e-01   1.34463230e-01   2.01566900e-02
C     6.175602214500000e+00   7.885901616343951e+00   3.423992400000000e+00 -5.69239350e-01   4.64406090e-01   1.37363732e+00
C     7.426245008899999e+00   7.148767267152712e+00   3.371549700000000e+00 -1.66595159e+00   3.10847199e+00  -5.37536080e-01
C     8.642702345200000e+00   7.870367875429259e+00   3.382718700000000e+00  4.91949360e-01  -5.65560740e-01  -2.67018270e-01
C     9.842466405700000e+00   7.091945958935438e+00   3.337168500000000e+00  1.84771634e+00   2.10428314e+00   9.50190250e-01
C     1.106013898700000e+01   7.887200826788483e+00   3.425219100000000e+00 -1.01590970e-01   2.60671490e-01  -4.65977100e-01
C     1.230766286620000e+01   7.138176417844472e+00   3.570560100000000e+00 -1.41430640e+00   2.39933375e+00   3.26720770e-01
C     1.353664960030000e+01   7.889270255978311e+00   3.653814900000000e+00 -6.95113200e-02  -5.06422350e-01  -1.62851185e+00
