52
Lattice="8.88768389401873 1.33226762955019e-15 0 4.44384194700937 7.69696003302603 0 0 0 30 " PBC="1 1 1" Properties=species:S:1:pos:R:3:force:R:3 Energy="-418.6245237"
C     1.276750426561267e+01   7.060387107077266e+00  -2.531283000000002e-01  2.07475830e-01  -1.48823672e+00   9.67760400e-02
C     8.980834465011799e+00   6.829442130465125e+00  -1.087967999999968e-01  5.89672950e-01   4.70144350e-01  -2.20742470e-01
C     1.032162205753058e+01   6.420971927724254e+00  -1.541399999999982e-01  2.17056334e+00   1.84200644e+00   1.57772370e-01
C     1.069234254965201e+01   5.081831269007163e+00  -1.487192999999998e-01  1.05830046e+00  -1.23385356e+00  -4.96432250e-01
C     6.610743670013271e+00   6.269535008830007e+00  -2.152865999999989e-01  5.18953700e-02  -1.73848203e+00   2.58224910e-01
C     7.981716592212181e+00   5.872896880925654e+00  -7.359330000000242e-02 -1.50142589e+00  -1.92588918e+00  -8.40811770e-01
C     8.308778336899014e+00   4.450852188755832e+00  -1.353761999999996e-01  1.20528570e-01   1.12409286e+00   6.29130000e-02
C     9.686188608565082e+00   4.093670987053267e+00  -1.669938000000002e-01 -9.17209380e-01  -3.97938320e-01   4.43009020e-01
C     1.000272595796576e+01   2.718749624183915e+00  -1.667480999999995e-01  1.54711340e+00   2.12680660e-01  -3.60890130e-01
C     4.208808303592594e+00   5.641469458858832e+00  -3.049875000000029e-01  4.27212270e-01   7.34001080e-01   5.74567500e-02
C     5.577312049442274e+00   5.228034716898611e+00  -3.211866000000008e-01  7.28250970e-01   2.99748631e+00   9.59683600e-01
C     5.955248452125602e+00   3.906750235755116e+00  -2.039438999999987e-01 -1.36130425e+00  -2.74748941e+00  -1.34812125e+00
C     7.287915590042667e+00   3.462077304543540e+00  -2.067927000000012e-01  1.39945848e+00  -1.44231390e-01   5.29735430e-01
C     7.669673119038585e+00   2.047418307340105e+00  -2.032883999999981e-01 -1.10225483e+00   2.86023599e+00  -1.33089720e-01
C     9.028734278512736e+00   1.723492975991160e+00  -1.907994000000031e-01 -4.22687920e-01  -1.43906852e+00   1.07512680e-01
C     3.194061305353061e+00   4.678625709957211e+00  -2.575620000000001e-01 -6.39997920e-01  -1.11181375e+00   3.50490040e-01
C     3.542137134255616e+00   3.237780654126912e+00  -2.516967000000001e-01  5.55856600e-02   3.51350243e+00  -5.78110470e-01
C     4.916796801081075e+00   2.893048130728868e+00  -3.360768000000007e-01 -4.68452600e-02  -1.36362963e+00   1.28631359e+00
C     5.226578488607004e+00   1.464702861017688e+00  -2.682059999999993e-01  2.55289698e+00   2.60895733e+00  -1.85071870e-01
C     6.649208273822394e+00   1.108520801696618e+00  -2.261774999999986e-01 -2.17465608e+00  -1.28337168e+00   6.05176600e-02
C     1.140109116961057e+01   7.421693263599108e+00  -1.959227999999982e-01 -8.07810550e-01  -3.43280010e-01  -1.67497260e-01
C     2.485759424827022e+00   2.341515917363192e+00  -2.227709999999981e-01  7.18411780e-01  -2.61955765e+00   5.53458400e-01
C     2.889005551499031e+00   9.349675917913696e-01  -1.596042000000004e-01 -2.16897935e+00   3.77523440e-01  -6.82204100e-01
C     4.221622696209621e+00   5.140110726114314e-01  -2.207961000000012e-01 -1.21361780e-01  -1.18559400e-01   6.08840840e-01
C     4.684078708999695e-01   3.306349253462968e-01  -2.170082999999998e-01  9.30882230e-01   3.03626840e-01  -3.08793900e-02
C     6.307192915427601e+00   7.631806879707656e+00  -1.937777999999994e-01 -1.27913623e+00   8.82146660e-01   1.00036500e-02
C     5.783066154136774e-01   6.753806105459922e-01   3.540981000000000e+00 -1.13957584e+00  -1.74814700e-01   2.38874900e-01
C     2.904879843144573e+00   8.770593590664640e-02   3.491167800000000e+00  2.61308511e+00  -7.18116100e-02   2.93110200e-02
C     4.311578099948181e+00   4.525729370471676e-01   3.533384100000000e+00 -3.50241140e-01   6.53624800e-01   5.51719800e-01
C     9.797440904677966e+00   7.180302973439055e+00   3.686896800000000e+00 -6.41930000e-02  -3.95333180e-01  -8.75188940e-01
C     1.118931606013203e+01   7.597951954954902e+00   3.680407800000000e+00 -1.38812064e+00  -1.29104664e+00   5.69503830e-01
C     1.218779241863579e+01   6.595352252954326e+00   3.718354800000000e+00  1.17208590e-01  -6.93602850e-01  -8.03594360e-01
C     4.660837951275074e+00   6.980408149344736e+00   3.583592700000000e+00  1.13801162e+00   7.84901700e-02   3.54657920e-01
C     5.715534820702828e+00   5.993131324463084e+00   3.580095000000000e+00 -5.80521910e-01   2.63547270e-01  -3.40817170e-01
C     7.085548940089438e+00   6.405833777646050e+00   3.511459500000000e+00 -1.29269118e+00  -7.28292290e-01   9.22344240e-01
C     8.100896300098960e+00   5.403208906586178e+00   3.668583900000000e+00 -7.87118430e-01  -1.10540510e-01  -1.04998731e+00
C     9.455494953938729e+00   5.767059755063538e+00   3.659201400000000e+00  9.15820000e-01   1.07133573e+00   2.87316300e-01
C     1.048474074070633e+01   4.773918539365428e+00   3.633109200000000e+00 -5.13926630e-01   4.43056260e-01   2.71446950e-01
C     1.183312956985139e+01   5.198164200474986e+00   3.674269500000000e+00  9.43613750e-01  -3.21240200e-02   1.08959040e-01
C     3.992919750773506e+00   4.210371294423322e+00   3.667346100000000e+00 -5.40746250e-01   6.51292250e-01  -9.37631580e-01
C     5.357899797123952e+00   4.616869382065307e+00   3.616614000000000e+00 -4.40692940e-01  -1.80263860e-01   6.43521120e-01
C     6.339537683037327e+00   3.602489405769216e+00   3.682851000000000e+00  1.67858093e+00   6.15037620e-01  -1.01191964e+00
C     7.732029510443260e+00   4.028093580324070e+00   3.639177600000000e+00 -1.14230030e-01  -1.20318592e+00   8.88098510e-01
C     8.763823173970781e+00   3.005319453358462e+00   3.670837200000000e+00  2.18929110e-01   1.89040519e+00  -8.03180130e-01
C     1.014132276734289e+01   3.391587774892797e+00   3.591961200000000e+00  9.41291700e-02   6.37697530e-01  -1.75343700e-01
C     2.299503877551826e+00   2.429474929315625e+00   3.465053700000000e+00 -7.37916730e-01   1.49400658e+00   7.94141710e-01
C     3.660388479163582e+00   2.832620836925344e+00   3.515706600000000e+00 -7.74243180e-01   8.29449430e-01   4.37338300e-01
C     4.651009947103811e+00   1.860851385294534e+00   3.562059300000000e+00  5.09610950e-01  -2.08047861e+00  -3.85866740e-01
C     6.004655619035668e+00   2.220381237380653e+00   3.612189600000000e+00  1.44801943e+00   5.31500200e-01   8.89123660e-01
C     7.078536909660145e+00   1.252813402291019e+00   3.703170900000000e+00 -9.28312400e-01   9.12651700e-01  -1.01563294e+00
C     8.435597052018149e+00   1.657426350482456e+00   3.608963100000000e+00 -3.58833200e-01  -9.66242910e-01   5.17142110e-01
C     1.918781895263325e+00   1.102435739036101e+00   3.505946700000000e+00  2.89310940e-01  -2.17648899e+00  -5.90722710e-01
