32
Lattice="9.86 0 0 4.93 8.53901048131456 0 0 0 30 " PBC="1 1 1" Properties=species:S:1:pos:R:3:force:R:3 Energy="-251.38439623"
C     5.200385061200000e+00   7.847904983680361e+00  -5.644176000000023e-01 -1.34545260e+00  -3.60659262e+00  -1.87910130e+00
C     6.489059847600000e+00   8.501981744174318e+00  -7.037973000000015e-01 -3.15532508e+00  -1.41918876e+00   1.50319474e+00
C     7.686650418999999e+00   7.724416717382165e+00  -5.197146000000004e-01 -5.46422340e-01   3.23075938e+00  -2.70524003e+00
C     8.853955901799999e+00   8.490921847020413e+00  -7.540632000000009e-01 -7.45916220e-01   1.29619678e+00   6.27463370e-01
C     1.007638376390000e+01   7.780173467162896e+00  -7.315022999999989e-01  4.41969600e-01  -3.75976330e-01  -5.03642200e-01
C     6.334530673799999e+00   4.467781063345600e-03  -5.224943999999994e-01 -7.29611830e-01   1.77794670e-01  -2.00208931e+00
C     1.250258934740000e+01   7.897068848859591e+00  -7.544798999999998e-01  1.13696283e+00  -4.22894518e+00  -5.32860820e-01
C     1.378584059150000e+01   8.514857632687004e+00  -5.611214999999987e-01 -6.22831010e-01  -3.80400040e-01   1.42003600e-01
C     1.350218835800000e+00   1.316536950696968e+00  -9.962985000000018e-01  4.54763677e+00   1.02684148e+00  -6.07810030e-01
C     2.671430439000000e+00   2.037450254019981e+00  -1.408603800000002e+00 -5.90196274e+00   2.89570238e+00   1.94974100e-02
C     3.804673664400000e+00   1.496764209151411e+00  -1.047148500000002e+00  5.05967562e+00  -5.17612688e+00   9.21356620e-01
C     5.048696158999999e+00   2.209654258227416e+00  -1.051055699999999e+00  6.66206320e-01  -2.28226133e+00   8.02506260e-01
C     6.215475117800000e+00   1.454922716238992e+00  -6.021515999999991e-01  2.10034505e+00  -7.85605000e-02  -8.31531320e-01
C     7.526351222499999e+00   2.068506037405007e+00  -6.662495999999969e-01 -4.98606980e-01   1.03024211e+00   9.17001570e-01
C     8.765224627900000e+00   1.374767110253337e+00  -4.877025000000010e-01  1.36554000e+00   1.24634788e+00  -1.60636911e+00
C     1.003272866320000e+01   2.026732258845695e+00  -8.230302000000016e-01  1.98075100e-02   2.30722634e+00  -1.03641355e+00
C     2.680662307700000e+00   3.480001566485444e+00  -1.744326600000001e+00 -1.54930549e+00   2.68310310e-01   1.69528515e+00
C     3.873195290700000e+00   4.223804882861564e+00  -1.627983000000000e+00  1.30165945e+00   1.84145101e+00   2.14237280e-01
C     5.102589489300000e+00   3.579509900432867e+00  -1.349916600000000e+00  1.35412217e+00   2.87213150e-01   2.21637863e+00
C     6.317638226000000e+00   4.264140179715416e+00  -8.435643000000006e-01  2.29145764e+00  -2.36758390e-01  -2.66381228e+00
C     7.599448381799999e+00   3.494156940328454e+00  -8.089851000000010e-01 -1.56629672e+00  -2.35115670e-01   2.99215800e-02
C     8.838749957699999e+00   4.148880530866271e+00  -9.840978000000007e-01  1.19712504e+00   2.52181883e+00   1.30986190e-01
C     1.016662218810000e+01   3.484064427671828e+00  -1.164560399999999e+00 -4.73985494e+00  -9.58439230e-01   1.19652510e+00
C     1.128484015390000e+01   4.241430254393332e+00  -1.525398599999999e+00  1.58651301e+00  -1.86822846e+00  -4.72399590e-01
C     3.931171745599999e+00   5.698885214190168e+00  -1.407420600000002e+00 -5.16653430e-01  -2.52085470e-01   1.31773338e+00
C     5.132937435400000e+00   6.341738470089422e+00  -9.029205000000005e-01  1.84865414e+00   2.50106945e+00  -2.35414700e-02
C     6.493690497999999e+00   5.696176127725283e+00  -8.636412000000000e-01 -8.27584969e+00  -3.37350044e+00   3.16691500e-02
C     7.638420130400000e+00   6.331228314430219e+00  -7.047294000000015e-01  1.93359187e+00   2.37130616e+00   1.05743788e+00
C     8.795478854700001e+00   5.650382524592406e+00  -9.085907999999989e-01  4.50002814e+00  -2.98964034e+00  -9.26472110e-01
C     1.007927402570000e+01   6.347752239000172e+00  -1.044500700000000e+00 -1.01990625e+00   4.68880320e-01   6.83773810e-01
C     1.129260357280000e+01   5.656553752856406e+00  -1.422501000000000e+00 -3.47609490e-01   1.20514305e+00   1.26074646e+00
C     1.252536313730000e+01   6.374692817064572e+00  -1.274278500000001e+00  2.10309660e-01   2.78551634e+00   1.02356494e+00
