76
Lattice="10.7446858958278 0 0 5.37234294791388 9.3051709414712 0 0 0 30 " PBC="1 1 1" Properties=species:S:1:pos:R:3:force:R:3 Energy="-601.57277835"
C     1.072003759054540e-01   1.699310317062800e-02  -4.097069999999903e-02  1.81664600e-02  -3.75529409e+00  -1.01245776e+00
C     1.250960800593400e+01   8.470179242042690e+00   4.115369999999999e-02 -5.60563760e-01   3.87761745e+00  -8.40314100e-01
C     1.397660994953466e+01   8.375492614108531e+00  -8.781029999999745e-02 -1.38694455e+00  -2.08301653e+00   5.71872450e-01
C     1.449640228846633e+01   7.055309390273810e+00  -1.789686000000010e-01 -3.86865270e-01   6.78673040e-01   1.35414575e+00
C     8.283273054018508e+00   9.017939481734336e+00  -3.419789999999878e-02  5.20618880e-01  -2.42231130e+00  -1.28277953e+00
C     9.636938224149365e+00   8.833099519044570e+00  -6.642420000000016e-02  2.21769470e+00   1.09759108e+00   5.15969490e-01
C     1.014499790331253e+01   7.532943814624010e+00  -8.591700000000202e-02 -1.78380550e-01  -1.38680863e+00   7.39565690e-01
C     1.154252588979924e+01   7.468494339659382e+00  -6.415319999999980e-02  3.12870224e+00  -3.98327623e+00  -1.53310743e+00
C     1.215996867408502e+01   6.135104193657808e+00  -3.253121999999991e-01 -2.55685665e+00  -3.77313630e-01   2.07348474e+00
C     1.354031085781526e+01   6.000413705335496e+00  -7.525380000000226e-02  3.10092373e+00  -3.39970281e+00  -2.16647500e+00
C     5.993480240809061e+00   8.002362145241028e+00  -1.487136000000007e-01  3.63490483e+00   9.74265980e-01   5.36406970e-01
C     7.512115611331884e+00   7.847074195784479e+00  -1.059696000000017e-01 -6.51947884e+00   3.75126856e+00   6.34130990e-01
C     7.861537255844532e+00   6.585211037764497e+00  -1.390080000000182e-02  6.37552466e+00  -2.90995725e+00  -3.28155980e-01
C     9.303126513035668e+00   6.310491312344757e+00  -4.092660000000237e-02  3.25417800e-01   1.54454832e+00  -2.12362678e+00
C     9.839127210647488e+00   5.000466171418395e+00  -4.164627000000003e-01  5.82538310e-01   1.58924341e+00   3.17053153e+00
C     1.124708613820592e+01   4.954156196684204e+00  -3.546644999999984e-01  2.90860082e+00  -7.63965650e-01  -1.07918660e-01
C     1.189402507305408e+01   3.631179374429875e+00  -2.345813999999997e-01 -4.82986519e+00  -4.37101210e-01  -2.06006930e-01
C     5.204726118577147e+00   6.879706391621053e+00  -1.125644999999977e-01 -3.44970548e+00   3.23341770e-01   6.25123900e-02
C     5.701185996012962e+00   5.602973384335532e+00  -1.406370000000123e-02  1.89966790e-01  -2.19868338e+00  -9.84253930e-01
C     7.091864943643006e+00   5.477225072234851e+00  -1.102080000000001e-01 -1.65650610e+00  -3.88165536e+00  -1.91870630e-01
C     7.642894018529439e+00   4.123019351892207e+00  -2.728187999999996e-01  3.53273610e-01  -1.38177540e+00   1.32500539e+00
C     9.042632885310361e+00   3.819969196080253e+00  -1.879293000000004e-01  3.21077600e-01   1.52096952e+00  -1.47286422e+00
C     9.635130699363838e+00   2.500968380316877e+00  -1.100177999999978e-01  1.88095248e+00   3.08792870e+00   5.40152820e-01
C     1.110228908559120e+01   2.382892646914772e+00  -8.164830000000123e-02 -9.22655890e-01   7.70418210e-01  -1.62233219e+00
C     3.479086100782682e+00   4.612275283384501e+00  -1.673136000000000e-01 -5.97440071e+00   3.47280160e-01   1.77510180e-01
C     4.824346347815125e+00   4.433122268966425e+00  -8.480129999999875e-02  1.34470503e+00   9.23184420e-01  -3.22356150e-01
C     5.355379132454221e+00   3.127258028277593e+00  -1.718757000000011e-01  2.94972517e+00  -8.27551560e-01  -8.08113590e-01
C     6.837923532826379e+00   2.941407244868615e+00  -2.576373000000025e-01 -1.31518366e+00  -1.44550270e-01   2.74928406e+00
C     7.424464278123177e+00   1.590957556775902e+00   1.629162000000000e-01 -7.84851120e-01   3.49412555e+00  -3.45512946e+00
C     8.828997584922972e+00   1.417038887114994e+00   7.039409999999999e-02  1.35849320e-01  -1.28894417e+00   1.21907970e-01
C     9.504252635204562e+00   1.479166721930092e-01   5.132700000000000e-03 -4.76556204e+00   1.28147605e+00   4.34768700e-01
C     2.457076666816258e+00   3.425127437116993e+00  -2.647076999999989e-01  7.01150965e+00   1.13170899e+00   8.13271740e-01
C     3.042737207444129e+00   2.108401363441610e+00  -1.874588999999993e-01  4.44366289e+00   1.92430847e+00  -1.33112902e+00
C     4.567658649005887e+00   1.977695256264096e+00  -2.624886000000011e-01 -2.46135693e+00  -1.05191720e-01   1.80468807e+00
C     5.173272608584353e+00   6.842992932728992e-01  -7.853010000000182e-02 -2.94332822e+00  -2.52099200e-02  -9.42318720e-01
C     6.537877050876860e+00   5.480455362326672e-01  -8.207999999999771e-03  2.11635130e+00  -3.46880250e+00   1.56824626e+00
C     9.462852930644425e-01   1.046269047063258e+00  -1.814856000000020e-01  1.05453292e+00   5.19253812e+00   6.57489560e-01
C     2.371426316462710e+00   9.315717420743396e-01  -2.560806000000007e-01 -3.87796345e+00   1.34894971e+00   1.18537586e+00
C     5.391755750079536e+00   9.299681540507367e+00   3.488151300000000e+00 -6.96210260e-01   2.30846522e+00   1.66504968e+00
C     1.189953967564540e+01   8.810808051540706e+00   3.733448400000000e+00 -4.74188352e+00   1.25564687e+00  -1.82120062e+00
C     1.323005789128247e+01   8.985320205004166e+00   3.814503900000000e+00  5.27624296e+00  -3.05391871e+00  -2.40002653e+00
C     1.418250128617678e+01   7.842304551264053e+00   3.604300200000000e+00 -4.02407387e+00  -1.06562890e-01   1.53969558e+00
C     7.631592059495235e+00   8.282211066986314e+00   3.287182800000000e+00  3.56702800e-02   1.79008633e+00   3.81805456e+00
C     9.041665541238785e+00   8.462500242776164e+00   3.544716300000000e+00 -1.00235970e+00  -2.83246153e+00  -9.07895120e-01
C     9.859124951427422e+00   7.245723987822021e+00   3.507660000000000e+00  1.35883601e+00   4.33584157e+00  -1.44108590e-01
C     1.128070491730128e+01   7.530188460456967e+00   3.420012900000000e+00 -2.62418400e-02  -1.04820361e+00   1.56789996e+00
C     1.211747123868991e+01   6.395893240714983e+00   3.288567600000000e+00 -1.33996187e+00  -1.19267236e+00   1.45888551e+00
C     1.349169362539551e+01   6.542704179445192e+00   3.502696200000000e+00  2.98297658e+00   1.10000902e+00  -1.13928925e+00
C     4.828989126592514e+00   8.042238710890722e+00   3.673592400000000e+00 -1.02546815e+00  -1.42364905e+00  -1.64642461e+00
C     5.642865936161513e+00   6.897374119684830e+00   3.580380300000000e+00 -5.28048100e-02  -1.84604580e+00   4.86331880e-01
C     7.033765418469653e+00   7.021011553757773e+00   3.616118100000000e+00  1.66374223e+00  -9.91705690e-01  -2.76466088e+00
C     7.893531760772392e+00   5.829733421265127e+00   3.487591800000000e+00 -4.43178580e-01  -1.10000500e-02  -2.79733770e-01
C     9.314639336530657e+00   5.994039756293305e+00   3.529919100000000e+00 -1.76468630e-01  -1.95637194e+00  -4.62670570e-01
C     1.021019203713880e+01   4.819653672814879e+00   3.542628600000000e+00 -5.34956528e+00   9.99884260e-01  -1.02777660e-01
C     1.151962149658964e+01   5.017279777841591e+00   3.375359100000000e+00  5.46855433e+00   9.84315280e-01   6.30308100e-02
C     1.247113638945190e+01   3.904322338633832e+00   3.505750500000000e+00 -3.90383762e+00   7.97033760e-01   1.32022451e+00
C     3.625275772136896e+00   5.438031506132153e+00   3.399374400000000e+00  1.27708337e+00  -1.04832024e+00   1.67572070e+00
C     5.070203940471456e+00   5.564303234098208e+00   3.504828300000000e+00 -1.38855188e+00   1.85911842e+00  -6.97931820e-01
C     5.829913135225349e+00   4.423504258179422e+00   3.325774500000000e+00  2.21317839e+00  -2.36013466e+00  -7.36283050e-01
C     7.358090807572530e+00   4.502917564636083e+00   3.234967800000000e+00 -3.92510615e+00   3.48234411e+00   2.41949696e+00
C     8.144629268125007e+00   3.428029161622923e+00   3.523250700000000e+00  8.83632820e-01  -3.55774604e+00  -6.86316850e-01
C     9.528398952933912e+00   3.560292396105536e+00   3.669544200000000e+00  2.33638465e+00   9.33154160e-01  -2.73587370e-01
C     1.041969460898847e+01   2.455865565408731e+00   3.718056300000000e+00 -3.79137219e+00   4.07543050e-01  -2.92100550e-01
C     1.174313417183119e+01   2.610634844637084e+00   3.742423500000000e+00  6.23251137e+00   1.32890996e+00  -1.91139288e+00
C     3.116688314002321e+00   4.134613036573191e+00   3.579957900000000e+00 -1.96542505e+00  -2.93087962e+00  -1.54792965e+00
C     3.806125167756464e+00   2.846455419562667e+00   3.543865500000000e+00  4.02858809e+00   3.53864828e+00  -1.71845300e-01
C     5.233493833158949e+00   3.066503729744949e+00   3.278655300000000e+00  2.66072880e-01   2.55058977e+00   1.10912608e+00
C     6.177365601153104e+00   2.050443268776435e+00   3.305536500000000e+00  3.12096410e-01  -4.77138114e+00   1.94067251e+00
C     7.599103782526841e+00   2.068973865341479e+00   3.507230400000000e+00  1.07133694e+00   1.43729871e+00  -9.92943180e-01
C     8.520144382345805e+00   8.612140418730680e-01   3.550732200000000e+00 -3.00342574e+00   5.78665131e+00   1.67933222e+00
C     9.889731887618154e+00   1.179260132016798e+00   3.626959800000000e+00  5.70133850e-01  -4.08517573e+00  -6.93948720e-01
C     1.848960323615113e+00   1.480735480698867e+00   3.544851900000000e+00  2.27665633e+00  -3.71799950e-01   1.89692386e+00
C     3.282728577663067e+00   1.585654725960614e+00   3.715891200000000e+00 -1.88088190e-01  -9.93098130e-01  -1.52220961e+00
C     4.199368046690531e+00   4.169055289342216e-01   3.695286600000000e+00  1.25597686e+00   3.56854138e+00  -1.18492979e+00
C     5.658582832908596e+00   7.109160833848034e-01   3.569854200000000e+00 -1.33863816e+00  -1.86663336e+00   5.71088450e-01
C     1.417745187476150e+00   1.714795982541148e-01   3.464847300000000e+00 -1.09966813e+00  -2.00301523e+00  -1.13486555e+00
