64
Lattice="9.86 0 0 4.93 8.53901048131456 0 0 0 30 " PBC="1 1 1" Properties=species:S:1:pos:R:3:force:R:3 Energy="-515.0325802"
C     9.873471915200000e+00   3.280732229270496e-01  -2.161182000000004e-01  1.65613792e+00   1.21598619e+00   4.19242780e-01
C     1.258927412900000e+00   1.070322695566124e+00  -2.223603000000018e-01  2.96471000e-02   5.28573790e-01   3.03445530e-01
C     1.192355996000000e+00   3.866819168179968e-01   3.601083000000000e+00  5.58098290e-01  -1.95300719e+00  -6.54385440e-01
C     2.426236593200000e+00   1.065762607799490e+00   3.537841200000000e+00  9.77808170e-01   6.94597530e-01   1.04396590e+00
C     2.525653247700000e+00   3.960093341356152e-01  -2.885727000000031e-01 -2.56648966e+00  -1.83443509e+00   4.85846110e-01
C     3.714828802100000e+00   1.072428927891121e+00  -1.641224999999977e-01  2.16626668e+00   5.95924810e-01  -5.32518010e-01
C     3.688049929500000e+00   3.657726980259352e-01   3.592914000000000e+00 -1.49301239e+00   9.48500610e-01  -2.55400880e-01
C     4.892816017299999e+00   1.076157572207318e+00   3.598891800000000e+00  7.41849070e-01   7.60068810e-01   7.73570240e-01
C     4.957749392400000e+00   3.949606582585664e-01  -2.807595000000020e-01  7.41190310e-01  -3.06682738e+00   2.73615730e-01
C     6.221155414499999e+00   1.063878816697497e+00  -3.035385000000019e-01 -9.84524810e-01  -9.04003400e-02   6.06024160e-01
C     6.111742149700000e+00   3.295360408123784e-01   3.666301500000000e+00  7.92341800e-01   1.58784139e+00  -1.37821149e+00
C     7.338345771100000e+00   1.055037866806924e+00   3.517764600000000e+00  4.76847310e-01   1.08768171e+00   2.74479400e-02
C     7.444112857199999e+00   3.331824544576528e-01  -2.187495000000013e-01 -5.70298730e-01   2.02041674e+00   2.16963950e-01
C     8.656063631200000e+00   1.077307008408031e+00  -1.480746000000011e-01  5.71751000e-01  -1.75389417e+00  -6.24720490e-01
C     8.617038835799999e+00   3.361333656993312e-01   3.494079600000000e+00 -2.74190635e+00   8.93044300e-02   4.78416180e-01
C     9.811039331900000e+00   1.037381071716589e+00   3.562835400000000e+00  6.12242150e-01   1.60775314e+00  -2.43687440e-01
C     1.113653480930000e+01   2.514656355689078e+00  -1.010187000000009e-01 -1.08171989e+00  -1.24345633e+00  -4.48489000e-01
C     2.512191734800000e+00   3.191869308908280e+00  -4.129830000000112e-02  5.62113900e-02   1.64670848e+00   2.09386180e-01
C     2.444789908700000e+00   2.477968155601338e+00   3.652801500000000e+00 -6.31649280e-01   7.08530790e-01  -4.76510180e-01
C     3.688629056600000e+00   3.230355483042688e+00   3.702326400000000e+00 -1.76501413e+00   2.67361600e-02  -7.85238210e-01
C     3.744490097800000e+00   2.475779521825209e+00  -5.056619999999867e-02 -1.01991040e-01   1.24660866e+00  -5.28150340e-01
C     4.980755237399999e+00   3.206521226210702e+00  -1.510521000000011e-01  3.23480670e-01  -1.46482003e+00  -3.95225160e-01
C     4.900723441500000e+00   2.522490214683639e+00   3.650171400000000e+00  3.62719470e-01  -4.38871230e-01  -6.81525650e-01
C     6.128003606800000e+00   3.265739263889503e+00   3.513721200000000e+00 -1.27527367e+00  -2.33764497e+00   4.94174360e-01
C     6.235599920100000e+00   2.488962473154758e+00  -2.729868000000018e-01 -1.96570910e+00  -7.01006320e-01   3.80521670e-01
C     7.426232338799998e+00   3.179806590363603e+00  -2.512280999999987e-01  9.25728070e-01   1.19563618e+00  -1.88366810e-01
C     7.306136897899999e+00   2.544221654794820e+00   3.445492800000000e+00  2.80231855e+00  -2.79324160e+00   8.77039750e-01
C     8.594881493099999e+00   3.200112101114728e+00   3.567315900000000e+00 -1.71045091e+00   2.67141520e-01  -7.66996140e-01
C     8.667227369700001e+00   2.473188871435682e+00  -1.718162999999997e-01 -7.77842020e-01   8.30505790e-01  -3.11921990e-01
C     9.862520216000000e+00   3.206254296743098e+00  -1.558293000000006e-01  2.07974440e+00  -8.37048260e-01   6.08563680e-01
C     9.813905831099998e+00   2.479251227316063e+00   3.569565000000000e+00 -8.74460270e-01  -9.11032320e-01   1.09287080e-01
C     1.101734348110000e+01   3.161325866152054e+00   3.615302100000000e+00  2.72650049e+00   1.40026091e+00   5.13995830e-01
C     1.237794351650000e+01   4.668583152941708e+00  -2.681159999999849e-02  2.32129270e-01  -2.13216590e+00  -3.52721860e-01
C     3.759444020300000e+00   5.335347004426639e+00  -9.665219999999763e-02  1.12954510e-01   5.92212720e-01  -3.35594330e-01
C     3.635389049900000e+00   4.676743031356396e+00   3.609635700000000e+00  5.57825760e-01  -1.76998449e+00   6.20483310e-01
C     4.884573796800000e+00   5.348687756669857e+00   3.596819700000000e+00 -2.86760120e-01   1.84441610e-01   9.56662000e-02
C     5.000338972200000e+00   4.598333823794110e+00  -2.199771000000013e-01 -1.26044082e+00   1.18533596e+00   8.56196960e-01
C     6.221983112199999e+00   5.318889342578011e+00  -2.679690000000008e-01 -1.66745175e+00   6.05948890e-01  -1.55391800e-01
C     6.123511637300000e+00   4.633310379231133e+00   3.561086700000000e+00 -9.95182810e-01   2.01215627e+00  -2.08002600e-01
C     7.328462501500000e+00   5.347425605530809e+00   3.541629600000000e+00  1.69156478e+00  -3.47986200e-02   1.02578560e-01
C     7.396125962699999e+00   4.619432267058408e+00  -3.135105000000031e-01  2.95989635e+00  -1.37896750e+00   7.54250920e-01
C     8.664842087799999e+00   5.301272168496304e+00  -2.371197000000009e-01 -1.06619374e+00   5.28773720e-01  -4.20270220e-01
C     8.559960084600000e+00   4.621381125420259e+00   3.600649200000000e+00  1.23436447e+00   5.04275200e-02   1.21585280e-01
C     9.827095355899999e+00   5.311509673550881e+00   3.696718200000000e+00 -1.05124218e+00   8.43229780e-01  -5.18942050e-01
C     9.885616033500000e+00   4.596859905195157e+00  -1.312578000000002e-01  6.81057080e-01   1.88070420e+00  -3.88240990e-01
C     1.115176890370000e+01   5.368555386963568e+00  -1.120656000000011e-01 -1.02125062e+00  -3.19428562e+00   2.83416090e-01
C     1.106136350040000e+01   4.610489275992601e+00   3.684544800000000e+00 -1.73097635e+00  -9.98561090e-01  -1.83491640e-01
C     1.224091924440000e+01   5.344289995492447e+00   3.651829500000000e+00  1.88705751e+00   1.45436680e-01   1.12439050e-01
C     1.361154113170000e+01   6.775583305760869e+00  -1.523123999999996e-01 -1.37875400e-01  -8.78902910e-01   5.16083450e-01
C     5.005704192600000e+00   7.442585139467879e+00  -1.945937999999998e-01 -2.54869791e+00   1.23795068e+00  -7.52382200e-02
C     4.870550116000000e+00   6.758993630810221e+00   3.623485200000000e+00  1.91732400e+00   4.96426970e-01  -6.97303830e-01
C     6.152297414300000e+00   7.485209745031418e+00   3.582656100000000e+00 -1.29443471e+00  -3.02020450e-01  -8.40675100e-02
C     6.182059873600000e+00   6.737106097587466e+00  -2.349953999999990e-01  2.71765530e+00   8.35609420e-01  -6.52900210e-01
C     7.422224692499999e+00   7.503020071530183e+00  -3.309035999999992e-01  1.89584150e-01  -1.58983663e+00   2.68352610e-01
C     7.386924019099999e+00   6.760926435832368e+00   3.525910800000000e+00 -1.01339509e+00   1.33360470e+00   7.27103260e-01
C     8.605474238999999e+00   7.521985811536997e+00   3.612822300000000e+00  4.72179290e-01  -3.17747341e+00  -3.62484080e-01
C     8.646110996499999e+00   6.726543256233600e+00  -3.273662999999978e-01  3.44192880e-01   7.46438720e-01   5.46239740e-01
C     9.896475936100000e+00   7.405511403056967e+00  -2.739858000000019e-01 -4.03997830e-01   3.09547644e+00  -2.26422700e-01
C     9.827022983499999e+00   6.747335234411771e+00   3.661922100000000e+00  1.32889010e-01   5.27662370e-01  -3.25060400e-02
C     1.107016931850000e+01   7.466756943384139e+00   3.629194800000000e+00 -1.36033074e+00  -5.33975350e-01   7.41090380e-01
C     1.113725375120000e+01   6.725901378815820e+00  -1.909098000000000e-01  2.07776280e-01   2.91910248e+00   1.81197980e-01
C     1.237445983060000e+01   7.502693112818903e+00  -1.279107000000010e-01 -3.06044700e-02  -2.76701204e+00  -6.54534840e-01
C     1.228149048220000e+01   6.764496169163533e+00   3.660118200000000e+00 -4.44036780e-01  -5.46321070e-01  -7.65042400e-01
C     1.350135065240000e+01   7.444754218910008e+00   3.549002400000000e+00  8.76619450e-01   1.05466392e+00   6.35941700e-01
