64
Lattice="9.86 0 0 4.93 8.53901048131456 0 0 0 30 " PBC="1 1 1" Properties=species:S:1:pos:R:3:force:R:3 Energy="-504.8519132"
C     4.954639548399999e+00   8.112142272061027e+00  -7.864226999999993e-01  3.89365438e+00   1.82919003e+00  -1.02240990e+00
C     1.370034576400000e+00   3.545199046252864e-01  -9.140660999999994e-01 -2.46778880e+00  -1.38842080e+00   2.91811323e+00
C     9.762341284899998e+00   5.071179138201176e-01   3.989337000000000e+00  7.71049490e-01  -4.38368598e+00  -1.62535089e+00
C     1.197309660000000e+00   1.113102369559981e+00   4.161461400000000e+00 -2.10658479e+00   1.66264212e+00   3.51780240e-01
C     7.499528965900000e+00   8.149308229785122e+00  -7.698801000000017e-01 -3.96650820e-01   2.60380300e-01  -1.39027659e+00
C     3.763292427600000e+00   3.550117516289344e-01  -6.403172999999995e-01  6.00204440e-01  -2.37888810e+00  -1.20933100e-01
C     2.398760667900000e+00   4.144949255831384e-01   3.828456600000000e+00 -9.85892320e-01  -1.79353615e+00  -6.72167920e-01
C     3.627761403200000e+00   1.064796162593363e+00   3.771596100000000e+00  1.61678200e+00  -1.97900220e-01   4.50268680e-01
C     9.932308704400000e+00   8.036592693718388e+00  -6.606614999999998e-01  1.62229720e-01   5.97953040e+00   1.41554542e+00
C     6.170221612500000e+00   2.899143490643400e-01  -5.822471999999976e-01  3.35763089e+00   1.54179425e+00  -1.13264195e+00
C     4.929318673999999e+00   4.295431383619376e-01   3.627410100000000e+00 -2.61513145e+00  -4.13232058e+00   5.54766300e-02
C     6.120408350199999e+00   1.084144877220205e+00   3.834924000000000e+00 -1.33903998e+00   1.74968260e+00  -2.71679250e-01
C     1.244043121720000e+01   8.185882263302744e+00  -6.179070000000024e-01 -3.19006083e+00  -1.55270586e+00   2.67852150e-01
C     8.715482061800000e+00   3.012701229313776e-01  -9.141741000000003e-01 -1.26684317e+00   1.29515545e+00   1.11817585e+00
C     7.302766996400000e+00   3.787503715435440e-01   4.086746100000000e+00 -1.53196060e-01  -5.80531680e-01  -2.13162114e+00
C     8.469875969399999e+00   1.090390821825906e+00   3.991918500000000e+00  4.10751110e+00   2.70162718e+00   2.73496856e+00
C     1.288792416200000e+00   1.698602678449477e+00  -4.206186000000010e-01  5.46685410e-01   1.32248892e+00  -2.55499882e+00
C     2.516842746100000e+00   2.509716879686817e+00  -3.360824999999998e-01 -3.04795020e-01  -1.13300019e+00   2.01430731e+00
C     1.100597071060000e+01   2.528593472424219e+00   4.589037600000000e+00  9.92112710e-01  -1.01009272e+00  -1.29263212e+00
C     2.444802529500000e+00   3.204179744146981e+00   4.515854699999999e+00 -2.01713924e+00  -4.25871400e-01  -4.13199760e-01
C     3.735454295200000e+00   1.784954617389944e+00  -4.583109000000007e-01 -3.12038890e-01  -1.59845858e+00  -6.80291000e-02
C     4.938670637500000e+00   2.458228354294513e+00  -4.400154000000001e-01  3.66378953e+00   1.15158461e+00  -3.97575910e-01
C     3.635357300700000e+00   2.411051516853980e+00   4.067699699999999e+00 -1.42673102e+00   4.04890351e+00   1.18218679e+00
C     4.800706658099999e+00   3.168838316792148e+00   3.933831900000000e+00  2.89216233e+00   3.01850090e+00  -2.03422375e+00
C     6.224304205499999e+00   1.755043402969657e+00  -6.373770000000007e-01 -1.22818027e+00  -5.04429300e-01  -6.76095440e-01
C     7.465785531600000e+00   2.502386566140261e+00  -9.018443999999981e-01 -1.52645502e+00  -1.07875290e+00   9.99703100e-01
C     6.045512036700000e+00   2.517201663932956e+00   3.715197300000000e+00  1.98884471e+00  -8.56532400e-02   2.37798935e+00
C     7.335201022700000e+00   3.254144226948815e+00   3.945147900000000e+00 -2.15149363e+00  -3.10690720e-01  -1.81059937e+00
C     8.729195645599999e+00   1.767487729892685e+00  -9.703146000000018e-01 -2.10197902e+00  -8.91984950e-01   1.11753099e+00
C     9.880917004000001e+00   2.392387374697320e+00  -5.601767999999971e-01  2.43793841e+00   2.09249260e+00  -2.10879800e-02
C     8.515844472600000e+00   2.523449743291277e+00   4.273932300000000e+00 -5.51505950e-01   1.26314550e-01  -9.65831160e-01
C     9.719008359700000e+00   3.241013448973300e+00   4.569708300000000e+00  1.36707671e+00   1.03034720e-01  -1.82442533e+00
C     2.593142581300000e+00   3.890680835235595e+00   1.121250000000000e-01 -2.03204783e+00  -8.61477380e-01  -2.24422974e+00
C     3.856186100500000e+00   4.589549145982601e+00   5.300970000000000e-02 -3.19716759e+00   1.93070118e+00  -1.65154166e+00
C     1.220565184850000e+01   4.625328624575058e+00   4.576271700000000e+00  2.96798688e+00   2.34451992e+00  -3.27390323e+00
C     3.638723356799999e+00   5.384047799067537e+00   3.996356400000000e+00 -3.89949600e-01  -1.87790354e+00   1.64716872e+00
C     4.987880024099999e+00   3.902872492838519e+00  -3.593301000000011e-01 -3.53341460e-01  -1.28170519e+00   3.23235700e-01
C     6.141627316699999e+00   4.598951279641919e+00  -7.103111999999996e-01  3.01302546e+00   1.15848740e+00  -5.05719880e-01
C     4.893174231100000e+00   4.745532787442647e+00   3.753396900000000e+00 -1.70090717e+00  -3.27726965e+00   4.46742100e-01
C     6.095551438100000e+00   5.454587625351665e+00   3.386435400000000e+00  3.25932780e-01  -3.74456136e+00   1.00190204e+00
C     7.365181782399999e+00   3.937110082308603e+00  -8.150618999999999e-01  4.42979954e+00  -2.90519596e+00   3.50166360e-01
C     8.747894297500000e+00   4.536636655202652e+00  -5.869904999999989e-01 -4.51553711e+00   4.05401615e+00  -8.14506770e-01
C     7.364978863599999e+00   4.615992326686540e+00   3.544827300000000e+00 -1.31054972e+00   1.39376314e+00   1.69963389e+00
C     8.569798096800000e+00   5.333944301175089e+00   3.781408200000000e+00 -6.27884870e-01   7.76594100e-02  -6.05956690e-01
C     9.912032353899999e+00   3.858653056287630e+00  -4.192518000000014e-01  1.83224322e+00  -2.09667332e+00   8.87577830e-01
C     1.114482519590000e+01   4.577276709340535e+00  -8.002019999999987e-02  1.20948442e+00  -2.12729970e+00   5.89943070e-01
C     9.762912129600000e+00   4.672913028985802e+00   4.246648800000000e+00 -8.25516470e-01  -1.89646400e-01   6.75000510e-01
C     1.096207665280000e+01   5.432783005920671e+00   4.363987499999999e+00  1.50709105e+00  -3.93605954e+00   7.93067370e-01
C     3.737318919799999e+00   6.038569954348131e+00  -2.456268000000001e-01  3.55064878e+00  -7.60507800e-02   3.96769590e-01
C     5.043148824399999e+00   6.757068596287610e+00  -5.331681000000010e-01 -6.26779070e-01  -2.34581914e+00  -1.62180432e+00
C     1.358459532930000e+01   6.762659684179599e+00   3.908570100000000e+00 -3.79340595e+00   3.00577804e+00  -1.05190980e-01
C     4.875037204800000e+00   7.517538011758175e+00   3.626983500000000e+00 -7.67062550e-01   2.73192867e+00   1.18078493e+00
C     6.347512152600000e+00   5.994861833744784e+00  -9.001638000000014e-01 -6.38529167e+00   5.43352470e-01   2.81233256e+00
C     7.521527759800000e+00   6.688799719840638e+00  -9.190974000000018e-01  1.96291298e+00   1.93757391e+00   1.52962324e+00
C     6.076327593300000e+00   6.861942246689931e+00   3.348328800000000e+00 -3.48870970e-01  -4.63348940e-01   9.50668220e-01
C     7.268630788999999e+00   7.546162995029859e+00   3.491799600000000e+00  2.78825017e+00   1.10995680e-01   9.44096500e-02
C     8.728597094300000e+00   6.041123886992595e+00  -5.541854999999991e-01  1.60151935e+00  -2.79595739e+00  -1.01697288e+00
C     1.002319695190000e+01   6.708851621980508e+00  -4.217933999999985e-01 -3.87194346e+00  -3.10302819e+00  -3.98706900e-02
C     8.499233675699999e+00   6.739779234818229e+00   3.557351100000000e+00  2.60010511e+00   2.25123076e+00   6.89299600e-02
C     9.825031411399999e+00   7.436284886755526e+00   3.599124000000000e+00 -1.57787444e+00   2.00312263e+00   1.88071750e+00
C     1.117073658570000e+01   5.941709311380242e+00  -1.169036999999982e-01  6.17455600e-01   4.20928423e+00  -1.29834663e+00
C     1.238853261420000e+01   6.765013803978830e+00  -2.978129999999979e-01  9.38803920e-01  -1.16837333e+00   4.44945560e-01
C     1.100077330740000e+01   6.778382308006109e+00   4.092593700000000e+00  1.21431431e+00   2.45660006e+00  -1.89164319e+00
C     1.229131577500000e+01   7.543118154672901e+00   4.028657100000000e+00 -4.66724690e-01  -3.31869769e+00   7.71391540e-01
