76
Lattice="10.7446858958278 0 0 5.37234294791388 9.3051709414712 0 0 0 30 " PBC="1 1 1" Properties=species:S:1:pos:R:3:force:R:3 Energy="-609.80650151"
C     5.376695299917514e+00   9.284922888034560e+00   1.321212000000000e-01  7.33070790e-01   2.36483723e+00  -1.31538097e+00
C     1.243417338059360e+01   8.486289005335983e+00   1.943265000000000e-01  2.32059399e+00   1.83182223e+00  -5.74476160e-01
C     1.392078281798230e+01   8.324777385347925e+00   1.644702000000000e-01 -3.07564744e+00   2.13579260e-01   3.99940250e-01
C     1.444136242004986e+01   7.018287651068507e+00   1.174896000000000e-01  1.20390951e+00   7.85256720e-01  -9.70013800e-02
C     8.197484204663709e+00   9.008179008780242e+00  -3.699600000000913e-03 -2.12615330e-01  -2.89880130e+00  -4.47631390e-01
C     9.575581716062576e+00   8.772294228175173e+00   1.053720000000000e-02  1.76323537e+00   2.01539883e+00  -4.93238600e-02
C     1.015575311900471e+01   7.511183858484238e+00  -5.647770000000207e-02  1.04428967e+00  -6.88446860e-01   7.42086490e-01
C     1.160837217233621e+01   7.377427702376012e+00   7.147560000000000e-02 -1.55845252e+00  -8.91203170e-01  -5.03186920e-01
C     1.218248910594398e+01   6.078774224752006e+00  -5.090039999999973e-02 -3.61850820e-01  -1.02021907e+00  -5.63448880e-01
C     1.358343094775827e+01   5.927775586891959e+00  -3.723779999999977e-02  8.62107150e-01  -3.30473521e+00  -9.74238570e-01
C     5.951945206930015e+00   8.051869283658494e+00   9.714180000000000e-02  3.11242050e-01  -2.78267363e+00  -1.12838030e-01
C     7.343155694171532e+00   7.840458312297848e+00  -5.449530000000280e-02  1.49609120e-01   2.16560146e+00   9.26843610e-01
C     7.880057333696067e+00   6.569116814106673e+00  -4.667549999999920e-02  1.09376962e+00  -4.68481460e-01  -2.54320590e-01
C     9.295511002010324e+00   6.390069506430474e+00  -8.615160000000088e-02  5.41948390e-01  -9.85087850e-01  -1.73717940e-01
C     9.858427675035941e+00   5.078894990789604e+00  -1.472370000000005e-01  2.09798166e+00  -1.20280676e+00  -1.76533970e-01
C     1.134023939527658e+01   4.903617300912909e+00  -2.572722000000027e-01 -1.74052610e+00   1.39581063e+00   1.04415869e+00
C     1.190532859006775e+01   3.614465054180609e+00  -2.939819999999997e-01 -1.12912061e+00  -2.23288632e+00  -6.50759190e-01
C     5.131574846437351e+00   6.910162681366219e+00   1.091874000000000e-01 -5.91459870e-01  -2.41997312e+00  -3.26306220e-01
C     5.709204647653273e+00   5.570601439048947e+00   2.092950000000000e-02 -4.34304238e+00   4.47185940e-01  -5.00107720e-01
C     7.048841394702803e+00   5.435313279597159e+00  -2.788079999999837e-02  2.83518113e+00  -1.49884755e+00   2.23694390e-01
C     7.666499448770585e+00   4.130815038002321e+00  -6.239999999998247e-03 -2.11622576e+00  -1.53339321e+00  -2.41198000e-01
C     9.042627942754848e+00   3.876212440792895e+00  -7.717170000000095e-02  5.93463050e-01   2.38417837e+00  -4.92130610e-01
C     9.589633240218591e+00   2.582201312950854e+00  -1.474677000000000e-01  2.66540760e+00  -8.69363010e-01   4.05825040e-01
C     1.105272379581108e+01   2.380381088226357e+00  -2.494055999999993e-01 -1.14227246e+00   2.71924855e+00   2.80994370e-01
C     3.460543351643898e+00   4.515436741618759e+00  -2.936906999999991e-01 -4.12485443e+00   3.03101742e+00   1.13091359e+00
C     4.794473434841649e+00   4.397550089290156e+00  -1.404585000000012e-01  3.42672528e+00   6.17703280e-01   2.41360040e-01
C     5.370385268229020e+00   3.093674735838039e+00  -1.049970000000009e-01  7.09284440e-01  -4.06775800e-02   9.20607830e-01
C     6.793867903082052e+00   2.969699524059975e+00   2.237730000000000e-02  9.82316290e-01  -3.43302500e-01   8.13820200e-02
C     7.406131641317169e+00   1.650469614988056e+00   1.566969000000000e-01 -1.52892071e+00   2.97072810e-01  -9.03262480e-01
C     8.812171567973859e+00   1.415820561083820e+00   3.903300000000000e-02 -1.66019838e+00   2.96563883e+00   2.27174260e-01
C     9.369837420447004e+00   1.697226889289334e-01   1.283832000000000e-01 -3.53018110e-01  -2.09199547e+00   2.99886090e-01
C     2.552991791674084e+00   3.394305361102175e+00  -3.634631999999982e-01  9.80608830e-01   5.28491150e-01   1.21954188e+00
C     3.090044179141796e+00   2.085391071482630e+00  -1.309353000000009e-01  1.36293168e+00   1.50487296e+00  -5.81440000e-01
C     4.520755623774630e+00   1.961736515895159e+00   7.896600000000000e-03 -2.50957690e-01  -1.73815262e+00  -9.70780250e-01
C     5.084047501231875e+00   6.038984290243762e-01   5.327820000000000e-02  2.71788330e-01   2.42880329e+00   4.48065000e-01
C     6.521649298038660e+00   5.418232614767986e-01   1.593111000000000e-01 -5.63689320e-01  -2.45943191e+00  -4.58512000e-03
C     8.522660680336726e-01   1.088218060384710e+00  -1.366115999999984e-01  3.08344920e-01   1.05016148e+00   7.23199500e-01
C     2.279546519564918e+00   9.552326515854433e-01  -8.604060000000047e-02 -1.47432625e+00   7.44705280e-01  -2.39541100e-02
C     1.608896501979151e+01   9.303532113294047e+00   3.670169100000000e+00  1.06644318e+00  -7.00507620e-01  -1.36672601e+00
C     1.186263361362236e+01   8.819937726956777e+00   3.410971500000000e+00 -4.26228390e-01  -7.26829170e-01  -3.54389590e-01
C     1.327364741655245e+01   8.938991526876386e+00   3.401022600000000e+00  5.53530600e-01   2.03036234e+00  -1.17796280e-01
C     1.410373328320619e+01   7.827841337968592e+00   3.346289400000000e+00  1.76366832e+00  -1.93157651e+00   6.29335110e-01
C     7.610840471552559e+00   8.357330502312712e+00   3.454143600000000e+00  2.13406660e-01  -1.00251847e+00   9.29910470e-01
C     9.028030534831686e+00   8.489465139332934e+00   3.414225600000000e+00  7.78002290e-01  -2.30707730e-01  -6.47626000e-02
C     9.879704946736275e+00   7.282762197179887e+00   3.409588800000000e+00  5.62778580e-01   3.48249868e+00   7.99003500e-02
C     1.131120209652554e+01   7.484393061675757e+00   3.451027500000000e+00 -1.94498633e+00   2.58161025e+00   1.94095060e-01
C     1.213603155539014e+01   6.411750833875804e+00   3.552704700000000e+00  1.16582171e+00  -3.07323690e+00  -5.29918520e-01
C     1.354095263790406e+01   6.475389456244720e+00   3.436447500000000e+00 -1.93830870e-01   3.72792324e+00  -3.42928580e-01
C     4.821677905071859e+00   7.990013066783134e+00   3.386465400000000e+00 -2.57780289e+00   2.27678878e+00   9.50384590e-01
C     5.667216886433830e+00   6.910697170385014e+00   3.323236800000000e+00 -4.72711030e-01  -2.02123035e+00  -7.73233700e-02
C     7.049976946832144e+00   7.039759146909138e+00   3.391717800000000e+00  2.26932771e+00  -9.03775200e-01  -8.25873390e-01
C     7.930467800469091e+00   5.835124837307763e+00   3.258890100000000e+00 -1.18008026e+00   2.16643176e+00   9.46369990e-01
C     9.339156507093849e+00   6.022831909267563e+00   3.382360800000000e+00 -9.46228880e-01  -1.82573427e+00  -5.44721570e-01
C     1.019198317911435e+01   4.870153672971645e+00   3.408093600000000e+00  7.20135900e-02   9.57618930e-01   5.62395310e-01
C     1.159215414343875e+01   5.094603329008547e+00   3.541013400000000e+00  6.96719000e-03  -1.84733471e+00  -5.70035740e-01
C     1.244237077008385e+01   3.917768775900679e+00   3.499055400000000e+00  2.51449850e-01   1.91333810e-01   2.84458160e-01
C     3.631303648373654e+00   5.393594476204763e+00   3.345483600000000e+00  2.89742282e+00  -3.76255500e-01   2.00163320e-01
C     5.078576468341883e+00   5.618938638324129e+00   3.242142000000000e+00 -6.16363450e-01  -2.16363622e+00   9.88509120e-01
C     5.884602028476893e+00   4.424400439192653e+00   3.357619500000000e+00  1.16338231e+00   8.34919110e-01  -8.43927400e-01
C     7.350431458228716e+00   4.545024765863515e+00   3.275541300000000e+00 -1.64392228e+00   8.96617540e-01   8.61041970e-01
C     8.179269168444876e+00   3.441131958926956e+00   3.449211000000000e+00  1.83263554e+00  -1.57821105e+00  -1.41132570e-01
C     9.623121471380269e+00   3.578873798903913e+00   3.437424900000000e+00 -1.43690756e+00   1.14739252e+00   2.75552010e-01
C     1.045191808317286e+01   2.474036237961816e+00   3.563662200000000e+00 -1.53060040e-01  -1.68355953e+00  -3.46704390e-01
C     1.182901445846299e+01   2.580923340773955e+00   3.528498300000000e+00  2.16339142e+00   2.69660357e+00   4.87075860e-01
C     3.150377202173182e+00   4.089354918362056e+00   3.461990700000000e+00 -2.14672434e+00  -2.49036110e+00  -4.29865040e-01
C     3.946434379964466e+00   2.853545122353562e+00   3.414630000000000e+00  1.20807360e-01   4.44704095e+00   1.83792410e-01
C     5.359340214634686e+00   3.104118766649386e+00   3.421450500000000e+00 -1.25881160e-01  -5.26033680e-01  -6.56822590e-01
C     6.250219890174624e+00   1.999660949733351e+00   3.364346700000000e+00 -3.60322380e-01  -2.01389552e+00   8.64381180e-01
C     7.668055118118616e+00   2.103516520904947e+00   3.539913000000000e+00 -7.65119720e-01   7.03456190e-01  -1.84981947e+00
C     8.514094157162374e+00   9.594105802857941e-01   3.409567500000000e+00 -2.85776770e-01   3.88885000e-03   1.28743736e+00
C     9.942690940163228e+00   1.150514039638694e+00   3.552856200000000e+00 -2.91425730e+00  -2.91173520e-01   1.28117200e-01
C     1.934894172506133e+00   1.461769495185540e+00   3.582694800000000e+00 -3.98171330e-01   1.05633660e-01  -7.46066300e-02
C     3.319271146962108e+00   1.630036855379457e+00   3.436589100000000e+00  1.63403329e+00  -1.44962945e+00   2.66531930e-01
C     4.215454130845139e+00   5.161928194845343e-01   3.396264900000000e+00  5.05909200e-01  -1.60782042e+00  -2.46906540e-01
C     5.664253287168892e+00   6.596502676596768e-01   3.311253900000000e+00 -9.13339230e-01   1.17789599e+00   9.63874880e-01
C     1.382422301197048e+00   1.758341390989066e-01   3.685272600000000e+00  4.05484580e-01  -9.84010610e-01  -1.06635365e+00
