52
Lattice="8.88768389401873 1.33226762955019e-15 0 4.44384194700937 7.69696003302603 0 0 0 30 " PBC="1 1 1" Properties=species:S:1:pos:R:3:force:R:3 Energy="-417.84491483"
C     1.277101378981856e+01   7.106306170011441e+00  -2.385506999999976e-01  1.82158483e+00   9.66787480e-01  -8.39722500e-02
C     9.044367362300941e+00   6.854360268866246e+00  -5.487449999999683e-02  1.17768359e+00  -1.04343114e+00  -1.35209800e-01
C     1.044666390428491e+01   6.455253956789073e+00  -7.009109999999907e-02 -2.07743828e+00   8.82876380e-01   6.08313020e-01
C     1.072734567056741e+01   5.079174201435206e+00  -8.748300000000597e-03  2.03932411e+00   3.95263800e-02  -5.14573760e-01
C     6.685056216914067e+00   6.315344159174955e+00  -2.109750000000012e-01 -5.79417590e-01  -2.35085643e+00   1.00122760e-01
C     8.042678771336710e+00   5.839551879774886e+00  -4.951140000000009e-02 -9.78366200e-01   2.13830021e+00  -5.14380220e-01
C     8.344701688618638e+00   4.470152546939857e+00  -2.449500000000171e-02  1.79187047e+00   9.07734980e-01   4.85446160e-01
C     9.746232912160774e+00   4.098661234119117e+00   6.571650000000000e-02 -1.49635504e+00  -1.06067847e+00  -8.39033860e-01
C     1.007528003213607e+01   2.711549579893451e+00  -8.282759999999811e-02 -7.71544100e-02   8.33867740e-01  -8.53485510e-01
C     4.229136569773217e+00   5.764710719831982e+00  -2.423777999999999e-01  4.42714940e-01  -3.38080363e+00  -8.68394300e-02
C     5.617286318673607e+00   5.357376203543538e+00  -2.636609999999990e-01 -1.98315050e-01  -1.38727487e+00   8.50718470e-01
C     5.929582776341382e+00   3.906203443714586e+00  -1.471686000000005e-01  1.19630001e+00   2.43101294e+00  -1.16792859e+00
C     7.332529807937377e+00   3.550385912420535e+00  -1.224455999999989e-01 -1.75697716e+00  -3.18468358e+00   2.81485420e-01
C     7.662202843010443e+00   2.101420486788986e+00  -1.511421000000013e-01 -1.08798775e+00   2.97692047e+00   1.74863510e-01
C     9.009218124568214e+00   1.785979129633108e+00  -1.956626999999997e-01  2.37366763e+00  -2.90101507e+00  -8.87350000e-02
C     3.212385665368434e+00   4.680915863444538e+00  -1.826580000000000e-01  2.02400220e-01   2.10980737e+00   4.17151940e-01
C     3.543531078651399e+00   3.321640726984969e+00  -2.448963000000006e-01  1.24216841e+00  -2.63102100e-01  -5.81843280e-01
C     4.927323551667256e+00   2.944135779292789e+00  -2.825160000000011e-01 -3.08584170e-01  -1.46397618e+00   1.13884720e+00
C     5.294859764353753e+00   1.526749672181125e+00  -1.639109999999988e-01 -2.77073482e+00   1.52729259e+00  -6.24038940e-01
C     6.598561362830625e+00   1.169465639092559e+00  -1.359981000000019e-01  3.01611772e+00  -1.90184838e+00   1.51826300e-02
C     1.142322576861321e+01   7.465218956811956e+00  -1.216752000000021e-01 -4.15675250e-01   8.79518060e-01  -3.03600780e-01
C     2.554187391736709e+00   2.311710055403819e+00  -3.184766999999979e-01 -7.23540450e-01   6.84313170e-01   1.40537702e+00
C     2.917059659025780e+00   9.545262599540023e-01  -3.028674000000002e-01 -1.91832350e-01  -9.42051360e-01   1.66494430e-01
C     4.273695636124050e+00   5.185045578769455e-01  -1.761809999999997e-01 -4.60542050e-01   1.31931016e+00  -1.14292610e-01
C     5.480649376245045e-01   3.661714049568053e-01  -3.222104999999971e-01 -3.51532523e+00   1.09907549e+00   7.38965780e-01
C     6.317951812303058e+00   7.661448488539988e+00  -2.962385999999988e-01  1.39936876e+00   1.09814424e+00  -5.42928200e-02
C     5.164897076649051e-01   6.093709425415103e-01   3.430989900000000e+00  1.56884600e-02  -8.06013370e-01   5.67544800e-01
C     2.918944647323472e+00   6.393025728277729e-02   3.452985300000000e+00  3.76844080e-01  -2.04320028e+00   7.42747300e-02
C     4.286049561131621e+00   4.600879409420584e-01   3.525177600000000e+00  3.14977220e-01  -5.64384740e-01   8.53887900e-01
C     9.767267084564699e+00   7.193449304200695e+00   3.701589900000000e+00  3.76845140e-01  -1.23401619e+00  -1.53589340e-01
C     1.114139744584928e+01   7.577149458051421e+00   3.703506000000000e+00  3.75952660e-01  -7.78877560e-01   3.12514780e-01
C     1.214924124538374e+01   6.519603005667082e+00   3.694233000000000e+00 -1.26063918e+00   7.83193240e-01  -1.03361013e+00
C     4.615690872291535e+00   6.890246498340518e+00   3.511760700000000e+00 -4.55114900e-01   2.23945515e+00   1.40485230e-01
C     5.628888390492397e+00   5.960734896666414e+00   3.481462200000000e+00  1.74304266e+00  -2.10777837e+00  -3.99229230e-01
C     7.035006592618550e+00   6.343494789879876e+00   3.475074900000000e+00 -1.29071511e+00   1.47361309e+00   8.43997840e-01
C     8.045781772577389e+00   5.417360460327735e+00   3.727032300000000e+00  1.66613121e+00  -2.37033192e+00  -1.53627138e+00
C     9.450561756134245e+00   5.790922178426945e+00   3.779691900000000e+00 -1.08862898e+00  -6.56588200e-01  -5.18872400e-01
C     1.044226027797933e+01   4.715469518228815e+00   3.695740200000000e+00 -1.13147725e+00   2.12722252e+00   2.81930050e-01
C     1.176426570642885e+01   5.141037440101926e+00   3.596375100000000e+00  1.98788078e+00   2.60681630e-01   5.21669960e-01
C     3.925870308026796e+00   4.168161858345205e+00   3.510256200000000e+00 -6.63042890e-01  -6.09560170e-01  -4.42984340e-01
C     5.287214180680387e+00   4.535623658651041e+00   3.464809500000000e+00  7.93689100e-02   2.47543881e+00   5.26049160e-01
C     6.319835687590231e+00   3.615047380906163e+00   3.523304100000000e+00  2.62533200e+00  -1.36286703e+00  -2.41852230e-01
C     7.756311018306924e+00   3.980107960591439e+00   3.557102700000000e+00 -2.32446823e+00   1.67225044e+00   1.26147269e+00
C     8.752180308064814e+00   2.989821470398856e+00   3.613673400000000e+00 -1.30411950e-01  -1.18654160e-01  -6.48004270e-01
C     1.010454250956720e+01   3.351014173729856e+00   3.641522100000000e+00  8.45095810e-01   7.05525800e-02  -8.27945350e-01
C     2.247826706162840e+00   2.366209766349040e+00   3.441304500000000e+00 -1.41062234e+00   4.12236130e-01   8.01375900e-01
C     3.584128374083654e+00   2.774009179023297e+00   3.440730600000000e+00  1.62971580e+00   5.09129890e-01   7.55279750e-01
C     4.653205293872305e+00   1.815940701093888e+00   3.576160500000000e+00 -4.00274440e-01   6.18509580e-01  -1.15923510e+00
C     6.035294131709052e+00   2.219438513716178e+00   3.579420900000000e+00 -1.34571785e+00   6.28509030e-01   4.36970440e-01
C     7.057766036911228e+00   1.267233656907224e+00   3.682122000000000e+00  1.36975400e-01  -1.45900019e+00  -1.22413939e+00
C     8.424428344030998e+00   1.616198045899362e+00   3.495883200000000e+00 -8.72317230e-01  -1.39174430e-01   9.90900750e-01
C     1.878922588232814e+00   9.880339748398035e-01   3.442535100000000e+00  1.77715980e-01   9.94558320e-01  -6.47367080e-01
