76
Lattice="10.7446858958278 0 0 5.37234294791388 9.3051709414712 0 0 0 30 " PBC="1 1 1" Properties=species:S:1:pos:R:3:force:R:3 Energy="-612.09491767"
C     4.995145379137551e-02   3.769050184076060e-02  -1.343421000000014e-01  6.50270480e-01  -5.75370610e-01   1.02576161e+00
C     1.252148566523872e+01   8.499950112896416e+00  -1.070045999999998e-01 -1.27958718e+00   8.85604880e-01   2.22270290e-01
C     1.390852463562643e+01   8.338866530771597e+00  -6.535019999999747e-02  1.32346830e+00   1.95634859e+00  -3.14668450e-01
C     1.446734054555488e+01   7.050151068763221e+00  -1.301711999999995e-01  1.26820781e+00  -1.80380800e-02   1.51634560e-01
C     8.238301762141782e+00   9.021414683925297e+00  -1.189593000000002e-01  2.12006775e+00  -3.00290096e+00   2.39114420e-01
C     9.705769272982490e+00   8.811441268423172e+00  -1.213481999999999e-01 -1.44372405e+00   1.28354023e+00   7.00618570e-01
C     1.027495869363653e+01   7.517384173036689e+00  -9.932339999999940e-02 -8.10338100e-02   5.59320680e-01  -3.74452770e-01
C     1.167871274209142e+01   7.350087342171813e+00  -1.825170000000007e-01  5.38827830e-01   9.57687360e-01   3.61104000e-01
C     1.227787505502123e+01   6.070746281575230e+00  -2.017391999999987e-01 -2.60281959e+00  -4.67037660e-01   1.26445455e+00
C     1.362912105912170e+01   5.929421578579536e+00  -1.445766000000006e-01  2.93231686e+00  -2.07225175e+00  -4.26758200e-02
C     5.978675836512035e+00   7.985007350075962e+00  -1.189439999999991e-01  1.72065297e+00   1.42423945e+00   1.93927520e-01
C     7.435042528838587e+00   7.794145918219212e+00  -7.686840000000217e-02 -1.69132502e+00   2.78224345e+00  -4.08100190e-01
C     7.993846243548542e+00   6.522964282864785e+00  -5.011770000000126e-02  1.90135278e+00  -4.33573010e-01   2.09374050e-01
C     9.452764315265480e+00   6.392969183798797e+00  -5.904960000000159e-02 -1.46242718e+00  -4.32434330e-01  -3.76634660e-01
C     1.004295083993501e+01   5.111499844504817e+00  -8.321609999999779e-02 -2.05481193e+00  -6.33759760e-01   6.00371910e-01
C     1.142247707221800e+01   4.927396293043242e+00  -1.006500000002575e-03  6.40444150e-01   8.92605030e-01  -1.46748842e+00
C     1.196917969187994e+01   3.643155222481364e+00   4.321200000000001e-03  4.05124040e-01  -7.32707430e-01   8.51438200e-01
C     5.156452877276493e+00   6.870646598038740e+00  -9.802439999999990e-02 -6.27538470e-01  -1.32677513e+00  -1.53618910e-01
C     5.741905669402487e+00   5.543522647199872e+00  -9.567449999999766e-02  4.50734810e-01   1.54619750e-01  -3.26965700e-02
C     7.184631929255560e+00   5.360386275205800e+00  -3.351689999999863e-02 -2.04496881e+00   1.44031495e+00  -9.79146720e-01
C     7.747531571954026e+00   4.090573151341522e+00  -1.653473999999981e-01 -1.04402086e+00  -4.08772250e-01   3.91965320e-01
C     9.139997736913244e+00   3.983722245644338e+00  -8.592150000000132e-02  9.51646470e-01  -5.19035970e-01   1.59245300e-02
C     9.663823523484917e+00   2.677088653422188e+00  -1.720499999997571e-03  1.82097410e+00   4.18731290e-01  -4.00201890e-01
C     1.111142115530790e+01   2.525498765000614e+00   2.983710000000000e-02 -1.11289314e+00  -1.79527343e+00  -2.48531830e-01
C     3.504449469083927e+00   4.584349534876467e+00  -7.463519999999946e-02 -1.55730460e+00   5.96613940e-01   1.10085180e-01
C     4.898859992403612e+00   4.384058894151087e+00  -1.466136000000020e-01 -2.80185800e-02   1.89353032e+00   7.96904330e-01
C     5.453498153560425e+00   3.102604443130611e+00  -9.165029999999774e-02  5.31478840e-01  -3.35529160e-01  -9.99207360e-01
C     6.868891651633642e+00   2.941462889790836e+00  -2.186216999999999e-01  1.21749530e-01   4.75496990e-01   1.25181347e+00
C     7.415543824995280e+00   1.642909442754434e+00  -9.681030000000135e-02  2.73741180e-01   1.17000574e+00  -3.71148000e-02
C     8.831842455408712e+00   1.549700662068967e+00  -3.265290000000221e-02  9.15023100e-02  -1.74779905e+00   5.27448200e-02
C     9.409642183832144e+00   2.409803852635218e-01  -2.427630000000036e-02 -1.34450579e+00  -1.62023632e+00  -5.65082000e-01
C     2.638884542141536e+00   3.455914432637368e+00   7.289279999999999e-02  1.74137790e-01   4.83032090e-01  -1.18897029e+00
C     3.198181921445167e+00   2.154688912713836e+00   1.968750000000000e-02 -1.02560867e+00  -7.34559340e-01  -4.23710370e-01
C     4.583467520264276e+00   1.985440880554552e+00  -8.520180000000011e-02  9.30345370e-01  -8.83517390e-01   9.24549530e-01
C     5.160702722890520e+00   6.644576911741185e-01  -2.680860000000251e-02 -5.72085410e-01   3.31289740e-01  -9.71191480e-01
C     6.559217662500576e+00   5.367569681068062e-01  -3.683309999999906e-02  8.84583960e-01  -2.09711589e+00  -3.75721630e-01
C     8.894867344598625e-01   1.177859424635200e+00  -2.966820000000325e-02  1.40402088e+00   6.25000590e-01  -3.01199530e-01
C     2.335726237985088e+00   9.920825242834844e-01  -5.994869999999963e-02 -1.18151538e+00   1.52155685e+00   3.68184650e-01
C     1.601143050676224e+01   9.285404895889252e+00   3.472118400000000e+00  1.03030941e+00   3.43406100e-02   1.87087560e-01
C     1.180074642549897e+01   8.779595251398117e+00   3.556855800000000e+00 -9.25229960e-01   5.37239750e-01  -2.44186300e-02
C     1.319146383910454e+01   8.960036938939673e+00   3.566794800000000e+00  1.14087199e+00   3.42855700e-02   4.57096320e-01
C     1.404829355130395e+01   7.835679176503064e+00   3.542591100000000e+00  3.78079780e-01  -1.44387074e+00  -1.58570700e-01
C     7.517989301325978e+00   8.284679449681567e+00   3.598640400000000e+00  6.06606010e-01   1.75064301e+00  -1.74321643e+00
C     8.939999162082696e+00   8.485092918663355e+00   3.512771100000000e+00 -5.69877390e-01  -4.69951590e-01   6.64907110e-01
C     9.789556817141557e+00   7.358488422703283e+00   3.537231600000000e+00  7.27496530e-01  -7.49387680e-01  -7.55565850e-01
C     1.120331943306544e+01   7.501866683873726e+00   3.539659800000000e+00  1.23756802e+00  -1.34435449e+00  -2.89717070e-01
C     1.209240286574005e+01   6.324543888446637e+00   3.470412600000000e+00 -1.45850823e+00   9.77232370e-01  -3.38964110e-01
C     1.349340536130624e+01   6.493166799222171e+00   3.490811100000000e+00  2.97702570e-01   1.10458118e+00   2.31987510e-01
C     4.739459944629066e+00   7.954543150935496e+00   3.500792100000000e+00 -1.66831948e+00   1.10260515e+00   4.03876300e-02
C     5.538527729686100e+00   6.805376313945495e+00   3.461155800000000e+00  1.76872489e+00  -1.72070900e-01   5.16919040e-01
C     6.972563687583254e+00   6.993233943571104e+00   3.492039300000000e+00 -1.01449059e+00  -1.08245670e-01   5.23821770e-01
C     7.821077765024075e+00   5.878289105953979e+00   3.496578300000000e+00  1.32355065e+00  -1.04041526e+00  -7.94560050e-01
C     9.254645093445701e+00   6.043298725801803e+00   3.410152500000000e+00 -1.05366208e+00   2.40087060e-01   1.18375138e+00
C     1.009065353841437e+01   4.906299144229527e+00   3.399052500000000e+00  2.15973210e-01  -1.37424982e+00  -3.39670400e-01
C     1.151318773984301e+01   5.025251424734180e+00   3.337900800000000e+00 -1.26495400e-01   1.04004686e+00   1.06344448e+00
C     1.235748044508744e+01   3.900316369492452e+00   3.396290700000000e+00  7.74553790e-01  -3.58512700e-01  -5.22774310e-01
C     3.597788125709791e+00   5.357647949501578e+00   3.487396500000000e+00  6.57740240e-01  -5.52474980e-01  -5.49434340e-01
C     5.027941545080409e+00   5.479309058318574e+00   3.498994800000000e+00 -6.36433970e-01   8.92183150e-01  -6.38492940e-01
C     5.911736497078464e+00   4.361131139058346e+00   3.429098100000000e+00 -1.42177987e+00  -2.83706830e-01   3.98434900e-01
C     7.299895708418099e+00   4.545139312517786e+00   3.448992600000000e+00 -2.43482480e-01   9.05254660e-01   4.37003900e-01
C     8.122194041625228e+00   3.414426676639412e+00   3.532954200000000e+00  5.90279140e-01  -1.09085020e+00  -1.11710986e+00
C     9.532147720120994e+00   3.568486064376753e+00   3.437205600000000e+00  5.86413440e-01   5.67146710e-01   1.19363050e-01
C     1.040375159032662e+01   2.424041973845640e+00   3.401720100000000e+00 -1.33688834e+00   3.59795500e-01   8.35603120e-01
C     1.180332515011497e+01   2.605622521258543e+00   3.415684800000000e+00  4.27768800e-01  -1.04632503e+00  -6.45676330e-01
C     3.048649954371470e+00   4.051545589488391e+00   3.380340900000000e+00 -1.11689559e+00   9.58349480e-01   9.47650140e-01
C     3.893488435936190e+00   2.947659482274910e+00   3.463224000000000e+00  8.63631230e-01  -1.98570628e+00  -7.64983670e-01
C     5.331581640952613e+00   3.049006472412791e+00   3.444407100000000e+00 -1.28337230e+00   1.40642995e+00   5.47261130e-01
C     6.128967990113157e+00   1.908028185849991e+00   3.556714200000000e+00  1.37975309e+00   3.11079310e-01  -1.10128580e+00
C     7.556391560860591e+00   2.090960216290221e+00   3.494094900000000e+00 -3.49564000e-01   5.19774580e-01   1.50015521e+00
C     8.397868674888354e+00   9.658432449566160e-01   3.633332400000000e+00 -4.35012470e-01  -1.51772910e-01  -1.38776308e+00
C     9.794648401448988e+00   1.128340747805768e+00   3.520866600000000e+00  1.03853006e+00  -2.78421270e-01  -2.47906160e-01
C     1.917440934517608e+00   1.445058897004650e+00   3.384438900000000e+00 -2.15250340e-01   8.20388420e-01   5.20828910e-01
C     3.338611151794672e+00   1.613728798893432e+00   3.421782000000000e+00 -9.67851390e-01   9.01986230e-01   2.51345020e-01
C     4.140590155772883e+00   4.699043396952138e-01   3.478594500000000e+00  1.44951528e+00  -2.29767600e-02   6.42640900e-02
C     5.583582830112846e+00   6.198276720014341e-01   3.516099000000000e+00 -1.15216297e+00  -6.33514710e-01   3.73586500e-01
C     1.326810922937558e+00   1.649040992093638e-01   3.443931600000000e+00 -4.72477150e-01  -1.33800215e+00   5.46670620e-01
