32
Lattice="9.86 0 0 4.93 8.53901048131456 0 0 0 30 " PBC="1 1 1" Properties=species:S:1:pos:R:3:force:R:3 Energy="-256.6472152"
C     9.805080145100000e+00   6.399550303522376e-01   9.286590000000000e-02  1.43258933e+00  -1.00925835e+00   1.62550420e-01
C     1.182653312300000e+00   1.329118414128305e+00   5.382000000000000e-03  1.03139078e+00   1.24361043e+00  -7.26841890e-01
C     2.422698578700000e+00   6.001306224954039e-01  -2.677020000000141e-02  8.17926800e-02   1.45689164e+00   1.35599170e-01
C     3.666528754000000e+00   1.305762939613933e+00  -1.296447000000001e-01 -9.72755360e-01   1.05667273e+00  -2.02145360e-01
C     4.888448135900000e+00   6.267887300931256e-01  -1.548252000000012e-01 -3.17695950e-01  -1.80222664e+00   4.77117900e-02
C     6.099336346999999e+00   1.314193504660837e+00  -1.070871000000011e-01  8.24658820e-01   1.75017344e+00   7.29957170e-01
C     7.334391023700000e+00   6.072425935439865e-01  -1.278270000000248e-02  5.00071490e-01   1.95688180e+00   9.22590800e-02
C     8.603844726099998e+00   1.314156018404830e+00   1.382745000000000e-01 -2.07774330e+00   9.42742730e-01  -9.22549850e-01
C     1.106941951480000e+01   2.780508456341616e+00  -2.473970999999970e-01 -1.32712980e-01  -2.01021212e+00   7.55540620e-01
C     2.435995774700000e+00   3.493020824984090e+00  -3.842798999999992e-01  4.35557400e-02  -1.00494840e+00   3.90673700e-02
C     3.671601921200000e+00   2.723961250360750e+00  -2.435928000000018e-01 -8.71948300e-01   1.32634467e+00  -3.97585190e-01
C     4.893985265400000e+00   3.464203116245872e+00  -2.164577999999970e-01 -6.90794240e-01  -3.43638730e-01   3.90808990e-01
C     6.090396137099999e+00   2.763161712721810e+00  -2.481749999999749e-02  2.22898592e+00  -5.19323530e-01  -5.59897120e-01
C     7.378739430300000e+00   3.478541566473573e+00   1.818180000000000e-02 -1.48931669e+00  -3.84658470e-01  -6.37092100e-02
C     8.612691364600000e+00   2.745238756674814e+00   3.913140000000000e-02 -1.21200488e+00  -9.53787500e-02  -1.87240360e-01
C     9.813288595100000e+00   3.434617750465502e+00  -2.029581000000000e-01  1.22578476e+00   7.52587480e-01  -1.23199440e-01
C     1.227439512760000e+01   4.923787278305896e+00  -5.231819999999985e-01  8.11551920e-01  -5.53560040e-01   8.31403710e-01
C     3.650969279600000e+00   5.599861896038010e+00  -3.462947999999990e-01  2.47547860e-01   1.62837188e+00   6.21375410e-01
C     4.852911463400000e+00   4.880643415515067e+00  -2.142479999999978e-01  1.53520415e+00   9.07681680e-01   3.74401830e-01
C     6.094509088199999e+00   5.623399678426130e+00  -1.391399999999976e-02  1.23075200e-01  -8.89364660e-01  -9.98685100e-02
C     7.344461929100000e+00   4.914690243491028e+00  -2.591189999999699e-02  7.49783180e-01  -8.99454830e-01  -3.38095420e-01
C     8.609206150400000e+00   5.587132793115473e+00  -1.871940000000016e-01 -3.94591660e-01  -1.43142550e-01   5.29973240e-01
C     9.845500771399999e+00   4.838799190119294e+00  -3.485340000000008e-01 -8.96044020e-01   2.60789891e+00   2.50879550e-01
C     1.106800534430000e+01   5.646078350969856e+00  -4.744985999999969e-01 -1.32739972e+00  -1.53705187e+00   4.36926460e-01
C     1.354696966790000e+01   7.040969261831306e+00  -1.069527000000008e-01 -2.08562351e+00  -2.56299720e-01  -1.07777213e+00
C     4.907678981299999e+00   7.746016571341849e+00   5.288970000000000e-02 -7.26527930e-01  -9.15751600e-02   2.79832280e-01
C     6.131056755800000e+00   7.032659353002483e+00   1.153275000000000e-01  3.50022140e-01   2.69048330e-01  -9.27047120e-01
C     7.388819160399999e+00   7.756636453285720e+00   4.766010000000000e-02 -1.01505309e+00  -2.16907725e+00   4.31412000e-03
C     8.604586198100000e+00   7.014820420818610e+00  -1.060307999999992e-01 -5.66697970e-01  -3.38730370e-01  -2.31344630e-01
C     9.807292778399999e+00   7.711406168674208e+00  -2.038980000000024e-01  1.52872450e-01   2.04469339e+00   1.06027890e-01
C     1.103365344940000e+01   7.066334477852250e+00  -3.127131000000034e-01  3.83903090e-01  -1.40907501e+00  -4.36394760e-01
C     1.223409198320000e+01   7.788205516590699e+00  -1.937528999999998e-01  3.05412006e+00  -2.48662266e+00   5.05061890e-01
