32
Lattice="9.86 0 0 4.93 8.53901048131456 0 0 0 30 " PBC="1 1 1" Properties=species:S:1:pos:R:3:force:R:3 Energy="-256.79489574"
C     9.919563471199998e+00   3.954203985828096e-01  -2.294244000000027e-01 -1.04113528e+00  -9.07058800e-02  -3.29290900e-02
C     1.291793257900000e+00   1.079125903030375e+00  -9.431190000000100e-02 -1.09209965e+00   7.45427810e-01  -6.09289450e-01
C     2.496054612300000e+00   3.808956271464344e-01  -1.845290999999989e-01  1.60282042e+00   1.59673920e-01  -1.09401140e-01
C     3.748040733100000e+00   1.102927028501698e+00  -1.992432000000015e-01 -1.58325223e+00   2.36169740e-01   1.04802111e+00
C     4.955076642199999e+00   3.700901071147280e-01  -1.387892999999991e-01  3.15618860e-01   2.13884124e+00  -8.59147990e-01
C     6.182560268600000e+00   1.085063333187434e+00  -2.316938999999998e-01  3.64296690e-01   3.33288050e-01   7.19795150e-01
C     7.423277543300000e+00   3.977434363838936e-01  -2.440178999999993e-01  7.92865300e-02  -1.04020255e+00   3.36901790e-01
C     8.669352988500000e+00   1.086625032814121e+00  -2.510918999999987e-01 -2.42362080e-01   7.08135530e-01   2.56745280e-01
C     1.111403014810000e+01   2.496269645982913e+00  -5.195700000001580e-03  8.05908510e-01   1.17776532e+00   1.87956670e-01
C     2.504365606300000e+00   3.236808157092109e+00   9.052710000000000e-02 -1.02676826e+00  -1.09357785e+00  -5.77097770e-01
C     3.717170453500000e+00   2.538766593339777e+00  -5.149469999999923e-02  6.61840500e-01  -1.39966236e+00  -5.43467900e-02
C     4.952675781500000e+00   3.216843438249240e+00  -7.222080000000020e-02 -2.80912480e-01   2.06303420e+00  -2.23401150e-01
C     6.152916671600000e+00   2.495951567842533e+00  -1.647311999999985e-01  2.03195559e+00   9.10615640e-01  -4.56665410e-01
C     7.442132722700000e+00   3.223363997431978e+00  -2.079866999999993e-01 -2.08809498e+00  -1.43700878e+00  -2.29068300e-02
C     8.639344522199998e+00   2.513574719231576e+00  -1.968071999999985e-01  2.05757877e+00   1.93237370e-01   1.41310190e-01
C     9.907057688100000e+00   3.248879926987895e+00  -7.337910000000036e-02 -7.18895730e-01  -1.07832022e+00   1.86208400e-02
C     1.235297395390000e+01   4.628353654427704e+00   1.213704000000000e-01  1.38208630e-01   2.19327445e+00  -3.06432000e-01
C     3.726061363399999e+00   5.412901115479458e+00   2.107470000000000e-02 -1.71423710e-01  -2.10116467e+00  -5.68069800e-02
C     4.948826043100000e+00   4.689865782662060e+00  -9.575219999999973e-02  1.61027127e+00  -5.86535930e-01  -4.30451400e-02
C     6.240540273100000e+00   5.396225025742751e+00  -2.552744999999987e-01 -1.97135431e+00  -1.75751823e+00   5.77882480e-01
C     7.458388806099999e+00   4.607889061911335e+00  -2.621196000000019e-01 -5.30539620e-01   2.81151848e+00   1.06834790e-01
C     8.668194685000000e+00   5.363356239652611e+00  -2.358507000000003e-01  8.43037360e-01   1.19877590e-01   4.92873890e-01
C     9.937119546300000e+00   4.683167441281128e+00  -3.710369999999941e-02 -3.47526957e+00  -1.67408435e+00  -8.07498690e-01
C     1.110478132020000e+01   5.350751635502873e+00   4.487730000000000e-02  3.26871303e+00   2.12464381e+00   3.52159280e-01
C     1.356583603840000e+01   6.807641910536667e+00  -7.854269999999985e-02  1.23953043e+00   5.75726840e-01  -7.99800050e-01
C     4.939319277600000e+00   7.531331758507357e+00  -2.959089000000006e-01  7.47371540e-01  -1.47765287e+00   1.29502764e+00
C     6.200125612099999e+00   6.808877078402599e+00  -2.585417999999997e-01 -4.73250260e-01  -1.65068890e-01  -5.90219140e-01
C     7.432680088600000e+00   7.500602763053400e+00  -2.754474000000009e-01 -2.84338350e-01   6.51856260e-01   1.51234760e-01
C     8.650409611399999e+00   6.799070964157472e+00  -2.499158999999977e-01  1.22293024e+00  -3.44161650e-01   4.37057790e-01
C     9.896998318900000e+00   7.550426949913047e+00  -1.211246999999993e-01  2.37754100e-02  -3.84857871e+00  -1.51730320e-01
C     1.116325442330000e+01   6.811459445951961e+00  -2.167049999999904e-02 -3.55327466e+00  -1.37506710e+00  -1.32390390e-01
C     1.233793597490000e+01   7.487366528298456e+00  -9.299340000000100e-02  1.51982737e+00   2.32622377e+00  -2.89313340e-01
