2
Lattice="2.458 0 0 1.229 2.12869044250215 0 0 0 30 " PBC="1 1 1" Properties=species:S:1:pos:R:3:force:R:3 Energy="-16.12929188"
C     0.000000000000000e+00   0.000000000000000e+00   3.000000000000000e+00  0.00000000e+00   0.00000000e+00   0.00000000e+00
C     1.229000000000000e+00   7.095634808340501e-01   3.000000000000000e+00 -0.00000000e+00   0.00000000e+00   0.00000000e+00
