32
Lattice="9.86 0 0 4.93 8.53901048131456 0 0 0 30 " PBC="1 1 1" Properties=species:S:1:pos:R:3:force:R:3 Energy="-253.45324421"
C     1.620009339000000e-01   9.346382459894480e-02  -3.769199999999984e-02 -1.29144492e+00   2.31362699e+00  -1.22011140e-01
C     1.367037185700000e+00   8.005767207446008e-01   1.744044000000000e-01  2.11618608e+00  -9.40047270e-01  -1.93177132e+00
C     2.643791626500000e+00   5.413536247078960e-02  -1.491296999999996e-01 -8.69871270e-01   5.78087912e+00   3.92289580e-01
C     3.848990124600000e+00   9.108454887483952e-01  -2.933225999999998e-01 -7.18985660e-01  -1.31959294e+00   1.99220379e+00
C     5.067778759300000e+00   1.731630204744440e-01  -1.793115000000007e-01  9.57618320e-01  -1.52160520e-01  -2.37544100e-02
C     6.365705923199999e+00   8.911634111524144e-01  -2.780399999999972e-02 -3.63103956e+00  -2.60638434e+00  -4.83017210e-01
C     7.479436898800000e+00   1.087410536388176e-01  -1.475250000000017e-02  4.39156858e+00   3.84335700e-02  -4.53555230e-01
C     8.803140912800000e+00   8.903725280017568e-01  -1.128722999999994e-01 -1.13691444e+00  -3.26441819e+00   1.21948697e+00
C     1.433756108200000e+00   2.207722734056840e+00   3.365502000000000e-01 -1.15132547e+00   1.01718714e+00   2.76277370e-01
C     2.671302554800000e+00   2.951892032422133e+00   4.151991000000000e-01 -2.63080624e+00   1.11854591e+00  -1.22014591e+00
C     3.817846723000000e+00   2.375784293500217e+00  -2.118179999999725e-02  2.75131238e+00  -5.01676014e+00  -3.40677560e-01
C     5.094601361000000e+00   2.975402319196507e+00  -4.565459999999888e-02 -1.11127000e-01   8.86433180e-01   1.37418869e+00
C     6.357938461700000e+00   2.258863977892922e+00   1.230780000000000e-02 -2.33793170e-01   2.11627141e+00  -1.77631227e+00
C     7.597317044200000e+00   2.955892900392432e+00  -1.249110000000009e-01 -7.73143550e-01   1.21802612e+00   1.64059836e+00
C     8.825862099600000e+00   2.298843710350387e+00  -4.076700000000244e-02  5.33718910e-01  -1.52561975e+00   3.89857260e-01
C     1.005635189210000e+01   2.990393832945719e+00   2.647446000000000e-01 -6.54924310e-01  -3.70073317e+00  -6.86883150e-01
C     2.603160686400000e+00   4.379943507361823e+00   4.219905000000000e-01 -1.13846267e+00  -3.48428580e-01   8.88416200e-01
C     3.820560195000000e+00   5.086681882507825e+00   2.853414000000000e-01  1.47317957e+00   6.89613980e-01  -1.43380740e-01
C     5.047205277700000e+00   4.375780312802299e+00   1.355562000000000e-01  2.79868598e+00   3.53541530e-01  -1.85761170e+00
C     6.380525355300000e+00   5.063351854244685e+00  -1.840928999999996e-01 -4.72143059e+00   5.52101500e-01   2.20014637e+00
C     7.593301608499999e+00   4.388559112765828e+00  -5.477579999999804e-02 -2.14251913e+00  -1.12891015e+00  -1.52189444e+00
C     8.721485766499999e+00   5.127245341721703e+00  -7.194660000000042e-02  5.09239415e+00  -1.50265841e+00   1.42394245e+00
C     9.963035570299999e+00   4.336073401729670e+00   2.850228000000000e-01 -3.21643420e-01   3.58802897e+00  -6.64907830e-01
C     1.116587974690000e+01   5.027387591465439e+00   4.458822000000000e-01  2.54041325e+00   2.57033273e+00  -8.32869560e-01
C     3.892124962400000e+00   6.513519110157260e+00   2.049822000000000e-01 -3.47529073e+00   3.40778980e-01  -1.63838907e+00
C     5.033757075800000e+00   7.235094016012262e+00  -1.758558000000008e-01  1.77732784e+00  -2.12548852e+00   1.78007831e+00
C     6.265520780299999e+00   6.459657337582248e+00  -1.981214999999992e-01  2.64807458e+00   2.74270447e+00  -8.63166820e-01
C     7.566440109100000e+00   7.268752831352012e+00  -3.009459000000021e-01 -4.43266700e-01  -5.05589351e+00   6.05270560e-01
C     8.854965664399998e+00   6.510238422330843e+00  -1.931820000000002e-01 -3.81605537e+00   1.38882776e+00  -6.38999620e-01
C     1.001346463890000e+01   7.247460637939922e+00  -1.119120000000002e-01  2.33329202e+00   4.06046540e-01   1.10734659e+00
C     1.126259855750000e+01   6.481559899463449e+00   2.381946000000000e-01 -3.69966783e+00  -3.60796580e-01  -7.62199120e-01
C     1.242115353680000e+01   7.180823481005574e+00   1.172337000000000e-01  3.54794040e+00   1.92651215e+00   6.71444600e-01
