32
Lattice="9.86 0 0 4.93 8.53901048131456 0 0 0 30 " PBC="1 1 1" Properties=species:S:1:pos:R:3:force:R:3 Energy="-249.28683252"
C     1.335120513600000e+00   6.135688902383040e-01   3.561589200000000e+00 -4.74774911e+00   7.06991482e+00   1.99122920e-01
C     2.434016774100000e+00   1.508427728956148e+00   3.448050900000000e+00  1.98541248e+00   3.89295880e-01   1.64146290e+00
C     3.674809231300000e+00   8.866789790186328e-01   3.983380800000000e+00 -3.87810920e-01  -7.02909040e-01  -6.89324090e-01
C     4.897063951800000e+00   1.610975352903717e+00   3.981406800000000e+00 -7.30258650e-01  -4.22301630e-01  -2.24343490e-01
C     6.135772547300000e+00   8.430103086437032e-01   4.062462600000000e+00 -2.17789177e+00  -9.53610620e-01   5.03278200e-02
C     7.333674596099999e+00   1.531563153170450e+00   4.082553600000000e+00 -2.48042761e+00   1.22505644e+00  -6.97190020e-01
C     8.511806457499999e+00   9.937585119982520e-01   4.036954500000000e+00  7.84885604e+00  -6.99775565e+00  -1.18795307e+00
C     9.848525720800000e+00   1.468720732493414e+00   3.613594500000000e+00 -1.17452108e+00   2.80023906e+00   1.05400875e+00
C     2.371137828600000e+00   3.027195174922318e+00   3.251250000000000e+00  1.71933739e+00  -1.86442495e+00   1.25765275e+00
C     3.657385674600000e+00   3.751149902998097e+00   3.492161100000000e+00 -1.48310755e+00  -2.28370248e+00  -3.07428990e-01
C     4.802195271600000e+00   3.063614054619519e+00   3.800662800000000e+00  4.64675879e+00  -3.20816333e+00   8.93072000e-02
C     6.149058453600000e+00   3.651415456053165e+00   3.870165300000000e+00 -1.59803502e+00   2.70157636e+00  -5.07029970e-01
C     7.386482981300000e+00   2.840856802837654e+00   3.881417100000000e+00 -2.32426886e+00   9.54002515e+00   1.11701728e+00
C     8.587014396299999e+00   3.743089333275292e+00   3.942935100000001e+00  9.24100040e-01  -5.42443605e+00  -1.77670347e+00
C     9.782917773800001e+00   2.997774014313479e+00   3.593463600000000e+00  1.43865273e+00  -2.47633058e+00  -1.71753210e-01
C     1.099080864350000e+01   3.711613003624126e+00   3.327639000000000e+00 -1.01019392e+00   7.23708410e-01   3.00812230e-01
C     3.735346131000000e+00   5.122217657741183e+00   3.581517000000000e+00 -3.30547434e+00   1.93930432e+00  -5.77277650e-01
C     4.782163646300000e+00   5.974190341004485e+00   3.872364900000000e+00  5.07705159e+00  -2.24455754e+00   5.11373120e-01
C     6.117852934000000e+00   5.191388595255263e+00   3.897065100000000e+00  1.25035717e+00  -9.17011770e-01   1.75734072e+00
C     7.423836999700000e+00   5.832787743059877e+00   4.285812300000000e+00 -1.99057273e+00   1.72877500e-01  -1.76236273e+00
C     8.697522712700000e+00   5.092420012160281e+00   4.083366300000001e+00 -3.54607342e+00   3.49739936e+00   1.77606135e+00
C     9.874247354900000e+00   5.912336310790510e+00   4.097119500000000e+00 -4.34228250e-01  -4.61730685e+00  -2.46447326e+00
C     1.094603773590000e+01   5.157858035852922e+00   3.452961000000000e+00  3.67440332e+00   1.71745460e-01   1.83820472e+00
C     1.232326961930000e+01   5.739393511396345e+00   3.501216900000000e+00 -2.87637692e+00   3.23781972e+00   1.17132201e+00
C     4.831165233399999e+00   7.409055348576481e+00   4.079725799999999e+00 -6.29749840e-01  -4.06232319e+00  -4.72363890e-01
C     6.126648053999999e+00   7.906721004745763e+00   4.079535600000000e+00  1.78283688e+00   1.12696025e+00  -1.26878510e-01
C     7.364843830900000e+00   7.311638474465926e+00   4.338780900000000e+00  1.31727683e+00  -4.32535777e+00   1.48648660e-01
C     8.628805513299998e+00   7.961660571223559e+00   4.354598400000000e+00 -3.59620822e+00   4.08063300e+00  -1.31627600e+00
C     9.792865724999999e+00   7.277573031447118e+00   4.263388200000000e+00  3.38432722e+00  -4.76570100e-02  -1.05417668e+00
C     1.103625200310000e+01   7.929979134540663e+00   3.977256600000000e+00  4.40371630e-01   5.66763080e-01   1.14485308e+00
C     1.226010675510000e+01   7.141189578472550e+00   3.850195200000000e+00  1.17337710e+00   3.59523259e+00   7.16954300e-02
C     1.349011163280000e+01   8.088344391413687e+00   4.055265899999999e+00 -2.17017102e+00  -2.29070295e+00  -7.93675870e-01
