32
Lattice="10.1 0 0 5.05 8.74685657822283 0 0 0 30 " PBC="1 1 1" Properties=species:S:1:pos:R:3:force:R:3 Energy="-256.75580852"
C     3.748071320945671e-03   9.765627145547573e-03   2.992505679264413e+00 -2.09969740e-01  -5.08061470e-01   1.65456550e-01
C     1.257632367217870e+00   7.345794917999663e-01   2.996227663940582e+00  4.93307840e-01  -1.57606900e-02  -3.96966700e-02
C     2.528173423375801e+00   1.060165110086385e-02   3.000911373613742e+00 -5.84769700e-01  -6.85574980e-01  -8.45752800e-02
C     3.780700365560342e+00   7.248157753096042e-01   3.004177108010647e+00  3.23511560e-01   2.21575930e-01  -1.43433420e-01
C     5.039267048748288e+00  -7.893484613708543e-03   2.991900544182702e+00  5.41142410e-01   2.61456010e-01   1.60863820e-01
C     6.304692658423330e+00   7.365891261142278e-01   3.002426125475750e+00 -2.30951100e-01  -2.68377930e-01  -4.42800500e-02
C     7.565613535682208e+00   2.389299647227330e-03   3.007181102775005e+00  4.21773250e-01  -2.32855300e-01  -5.38773500e-02
C     8.838894746796635e+00   7.180658880246229e-01   3.011573496490926e+00 -2.66879180e-01   7.43773520e-01  -2.14377120e-01
C     1.270600000822617e+00   2.184564440396518e+00   2.991673436245694e+00 -5.77508060e-01   2.49773970e-01   9.41681800e-02
C     2.524174622510937e+00   2.905468888857162e+00   3.006201898956662e+00  3.05315300e-01   1.75332840e-01  -2.16260040e-01
C     3.789914808441737e+00   2.183824378314766e+00   2.992470658699437e+00  1.09921800e-01   1.89964320e-01   1.27035990e-01
C     5.059748748282191e+00   2.928769056938153e+00   2.991137022348274e+00 -6.00243210e-01  -4.93362420e-01   1.44863100e-01
C     6.303120772705745e+00   2.195456979276354e+00   3.002960857854075e+00  6.60605870e-01  -3.98546340e-01   2.64032000e-03
C     7.587234489071477e+00   2.902759980352198e+00   3.011310863743220e+00 -8.59495290e-01   5.15007820e-01  -2.28148750e-01
C     8.836077299299527e+00   2.193039775723557e+00   2.991486039106115e+00  5.52781660e-01  -5.74858090e-01   2.11587670e-01
C     1.010324656544378e+01   2.930020166343316e+00   2.989373638107088e+00 -3.46409500e-02  -6.30256230e-01  -1.73000800e-02
C     2.519495945216003e+00   4.361812681943184e+00   2.992087947323463e+00  1.57724550e-01   6.52512970e-01   4.74009900e-02
C     3.780387202611481e+00   5.112780721222274e+00   2.986080623763175e+00  2.23053720e-01  -8.77935760e-01   2.61395600e-01
C     5.056665016874232e+00   4.372410388687124e+00   3.008530649358673e+00 -4.91305340e-01   6.97825150e-01  -2.20903500e-01
C     6.311078613334118e+00   5.109923472351075e+00   3.005932617623059e+00  9.88366000e-02  -6.28212200e-01  -4.37358900e-02
C     7.567289168898392e+00   4.360215175542196e+00   2.994722415312770e+00  5.06083070e-01   5.69149680e-01   2.37053730e-01
C     8.836123533282851e+00   5.103175907553270e+00   3.010409738947209e+00 -3.60573360e-01  -3.94761900e-02  -1.83941040e-01
C     1.009904678799743e+01   4.376290413274930e+00   2.990618504237427e+00  3.77063500e-02   2.16677720e-01   1.54838100e-01
C     1.136207859977521e+01   5.104879823622013e+00   2.998194341299113e+00 -1.02518870e-01  -9.78112100e-02  -1.24956040e-01
C     3.778164302572367e+00   6.558547565508221e+00   3.006972328662710e+00  6.99934380e-01   3.03667270e-01  -2.06347840e-01
C     5.055930147699891e+00   7.299266310957511e+00   3.003698414299424e+00 -2.72328610e-01  -3.67848560e-01  -3.65719800e-02
C     6.314700528683772e+00   6.558384214506450e+00   3.000193781931025e+00 -2.38126460e-01   2.49228910e-01  -3.18272700e-02
C     7.572182749422824e+00   7.278382568854203e+00   2.987441796330217e+00  1.06876320e-01   8.95991190e-01   2.53636530e-01
C     8.827497296618068e+00   6.567691064079384e+00   3.010547429884112e+00  5.61604960e-01  -6.13216580e-01  -1.30449120e-01
C     1.011262500686676e+01   7.282445585729923e+00   3.003820823775643e+00 -1.16622189e+00   5.32150410e-01  -9.08639300e-02
C     1.134950355783324e+01   6.568628366518126e+00   2.990386845611627e+00  1.10785899e+00  -6.91798190e-01   9.44083800e-02
C     1.263305668614934e+01   7.280408956062369e+00   2.990826305264282e+00 -9.12506880e-01   6.49864430e-01   1.56196410e-01
