32
Lattice="9.86 0 0 4.93 8.53901048131456 0 0 0 30 " PBC="1 1 1" Properties=species:S:1:pos:R:3:force:R:3 Energy="-253.59570165"
C     5.010881777200000e+00   8.499503381772604e+00  -4.283996999999999e-01 -4.05547622e+00   8.16442580e-01  -6.37031190e-01
C     1.235590222600000e+00   7.271455855119456e-01  -5.158784999999995e-01  5.27944890e-01  -9.01381940e-01   1.17168280e+00
C     2.451383290700000e+00   7.036989997557520e-02  -4.744604999999993e-01  2.59984539e+00  -5.67187599e+00  -9.65119870e-01
C     3.755081709800000e+00   6.049082842490687e-01  -4.009320000000010e-01 -9.63725120e-01   4.79112014e+00   1.94385186e+00
C     9.938547816600000e+00   8.513138132146647e+00  -2.339046000000025e-01 -1.91119793e+00  -4.98447270e-01  -6.37018170e-01
C     6.247929554300001e+00   7.463606646247752e-01  -2.458340999999997e-01 -1.71644467e+00  -5.05388542e+00  -4.15944120e-01
C     1.236306329750000e+01   8.510789818874542e+00  -2.941340999999973e-01  8.43769590e-01  -1.28845089e+00   1.30948055e+00
C     8.648010870599999e+00   6.698799071892928e-01  -4.451435999999980e-01  8.23065860e-01   6.25638350e-01   8.12557480e-01
C     1.103613669040000e+01   2.082408656537809e+00  -2.087826000000028e-01  1.57970815e+00   7.26140310e-01  -8.03596790e-01
C     2.413331726600000e+00   2.774413310660992e+00  -2.160900000000154e-02  2.63500482e+00  -1.73654683e+00   1.17136440e-01
C     3.722561802900000e+00   2.081344952002316e+00  -1.059114000000001e-01  1.46599140e-01  -1.10754985e+00  -1.81509319e+00
C     4.983201207600000e+00   2.791014171715370e+00  -2.384868000000004e-01 -3.20110996e+00   1.00130412e+00   3.55806460e-01
C     6.175541131799999e+00   2.082158805091165e+00  -4.029522000000014e-01 -3.54334640e-01   1.79792680e+00   2.76922690e-01
C     7.360795659999999e+00   2.780760357150776e+00  -4.829286000000010e-01  1.91999924e+00   6.59052990e-01   4.34708470e-01
C     8.583321777000000e+00   2.131164698576514e+00  -4.050735000000003e-01  2.09383833e+00  -2.81193058e+00  -9.77562720e-01
C     9.860326957600000e+00   2.782220527942856e+00  -3.059235000000022e-01 -1.80587768e+00   2.08272826e+00   1.22044039e+00
C     2.520874500100000e+00   4.112788182929826e+00   2.018097000000000e-01 -1.57103407e+00   5.96353474e+00  -9.39319030e-01
C     3.815279918500000e+00   4.942737135753217e+00   3.772920000000000e-02 -4.05394767e+00  -1.86862391e+00   6.70840140e-01
C     4.966037560500000e+00   4.257164405883989e+00  -2.283924000000006e-01  2.26743621e+00  -2.91084394e+00   5.96033250e-01
C     6.231645912199999e+00   4.890658820907059e+00  -3.122420999999989e-01 -1.99999440e+00   2.55087087e+00  -1.68349695e+00
C     7.436420676800001e+00   4.168010390654510e+00  -4.291157999999982e-01 -2.04227131e+00   1.08937859e+00   1.49165360e-01
C     8.608710981200000e+00   4.885050228043585e+00  -3.174899999999994e-01  2.07903797e+00  -1.57703750e-01   7.28626010e-01
C     9.863131733199999e+00   4.216008680903220e+00  -9.298859999999820e-02  3.20664480e-01   1.52023970e-01  -6.12574590e-01
C     1.106141639930000e+01   4.958624647872095e+00   1.449267000000000e-01  2.12196947e+00  -4.88540040e-01  -3.58399010e-01
C     3.722630773600000e+00   6.334197840714745e+00   2.081490000000000e-02  4.08360660e-01   1.71553440e+00  -1.06292294e+00
C     4.898439224600000e+00   7.106076911208476e+00  -3.538062000000011e-01  1.35411941e+00  -2.21571065e+00   3.53695110e-01
C     6.113273703499999e+00   6.352464577323665e+00  -5.169443999999999e-01  2.43970116e+00  -4.05102220e-01   1.18960507e+00
C     7.393947642200001e+00   7.056719039711141e+00  -5.584032000000008e-01 -1.52041251e+00   1.17197151e+00   1.05847424e+00
C     8.578649369499999e+00   6.269335431718559e+00  -2.889653999999986e-01  8.70821520e-01   4.57214982e+00  -8.81518230e-01
C     9.810785634100000e+00   7.102276795374562e+00  -1.623188999999989e-01  2.14681457e+00  -1.18423277e+00   3.42159530e-01
C     1.110003151170000e+01   6.479432319612252e+00   5.491290000000000e-02 -2.26112748e+00  -5.33218340e+00   4.35930330e-01
C     1.235286761380000e+01   7.030954624950256e+00   4.950720000000000e-02  2.78252810e-01   3.91719198e+00  -1.37751937e+00
