32
Lattice="9.86 0 0 4.93 8.53901048131456 0 0 0 30 " PBC="1 1 1" Properties=species:S:1:pos:R:3:force:R:3 Energy="-251.05287154"
C     4.889861862700000e+00   8.327696526942592e+00   1.043586000000000e-01  6.44135187e+00  -3.79751530e-01  -3.67847860e-01
C     1.332228822100000e+00   5.436874216621848e-01  -7.095869999999849e-02 -2.97044274e+00  -1.20466129e+00   9.78356890e-01
C     7.378226956799999e+00   8.328331573151990e+00   2.451153000000000e-01  3.62231287e+00  -3.27333700e-01  -1.82976420e-01
C     3.789539846199999e+00   5.235366377809568e-01   3.422709000000000e-01 -6.34988640e-01   8.95189180e-01  -4.61648997e+00
C     1.001637215570000e+01   8.355733684732835e+00   2.908200000000000e-03 -2.56421882e+00   5.64460580e-01   2.34084670e+00
C     6.337458896599999e+00   4.562581157694560e-01   3.290370000000000e-02 -1.96716113e+00   2.87478975e+00  -1.74135550e-01
C     1.246243952600000e+01   8.300867724525375e+00   2.337900000000000e-03 -2.79193811e+00  -2.93978567e+00  -1.74399952e+00
C     8.670437785699999e+00   4.609049598825672e-01   8.501040000000000e-02  1.48387354e+00   3.52231426e+00  -1.01679700e-01
C     1.365481376300000e+00   1.909782398262138e+00  -4.450851000000000e-01 -1.38065612e+00   1.42385081e+00   2.79959240e+00
C     2.600440706800000e+00   2.656936336960506e+00  -5.584196999999982e-01  3.26425800e-02  -7.42693210e-01  -5.99764280e-01
C     3.819104957600000e+00   1.959229843979408e+00  -2.384670000000000e-01  8.42173990e-01  -1.89326356e+00   1.99592435e+00
C     5.148072091700000e+00   2.657124792921799e+00  -1.852869000000013e-01 -4.81809179e+00  -1.60828321e+00  -6.72893530e-01
C     6.308871009800000e+00   1.934196026955192e+00   3.643140000000000e-02  1.64370683e+00  -1.67040631e+00   2.39815770e-01
C     7.569997547799999e+00   2.630480091570531e+00   1.066590000000000e-01 -2.30623794e+00  -2.76631084e+00   2.00358000e-03
C     8.753381239599999e+00   1.901397175360883e+00   6.243690000000000e-02  1.37689109e+00   1.15754135e+00   3.21926290e-01
C     9.984335438100000e+00   2.684886653014166e+00  -7.948980000000105e-02  4.69984570e-01  -1.62469371e+00  -3.80723287e+00
C     2.562232812400000e+00   4.055581850730010e+00  -9.199836000000019e-01 -6.56653690e-01   8.90101360e-01   1.80254586e+00
C     3.830496018399999e+00   4.745697675735015e+00  -7.592706000000007e-01 -1.57362559e+00   1.55364488e+00   1.13853408e+00
C     4.950177947699999e+00   4.035697996316387e+00  -3.485733000000018e-01  4.83958680e+00   1.23163876e+00   5.66376590e-01
C     6.218730791200000e+00   4.762768694706423e+00  -2.154480000000092e-02 -1.07341810e-01  -3.00933997e+00   4.38938490e-01
C     7.467953499099999e+00   3.964086268046705e+00   1.729839000000000e-01  1.06351848e+00   6.30688437e+00  -1.94709410e+00
C     8.718539647800000e+00   4.775979739380450e+00  -7.652819999999849e-02 -5.99653400e-01   8.61559000e-01   6.49169830e-01
C     9.930771283900000e+00   4.108406987432748e+00  -4.773911999999996e-01 -1.61241119e+00  -1.54826512e+00   2.82840057e+00
C     1.110160812570000e+01   4.825381757561965e+00  -7.340559000000013e-01  3.62081106e+00  -1.36650392e+00  -6.43750980e-01
C     3.865150270200000e+00   6.218205800936730e+00  -4.751127000000004e-01 -1.13388824e+00  -1.60251547e+00   6.00271660e-01
C     4.952978680699999e+00   6.918406795049350e+00   1.131501000000000e-01  1.87520297e+00  -2.09124984e+00  -1.95711445e+00
C     6.266485975699999e+00   6.128595460987198e+00   1.715202000000000e-01 -5.42468617e+00   7.31179120e-01  -6.28741040e-01
C     7.370872580000000e+00   6.838636469216552e+00   2.489079000000000e-01  6.10648911e+00   4.11899695e+00   5.24765190e-01
C     8.718925321699999e+00   6.250552341145913e+00   8.821079999999999e-02 -1.24508103e+00  -2.03539597e+00  -5.55248260e-01
C     9.942671810899999e+00   6.976824898226384e+00  -6.785100000000099e-02  1.66837842e+00  -2.78972387e+00  -1.45588405e+00
C     1.123186262040000e+01   6.198236471028202e+00  -5.128695000000008e-01 -2.84823855e+00   1.82092951e+00   8.18807230e-01
C     1.247441084780000e+01   6.880166629806871e+00  -4.569347999999991e-01 -4.51609200e-01   1.64709732e+00   1.40857709e+00
