2
Lattice="2.523 0 0 1.2615 2.18498209374814 0 0 0 30 " PBC="1 1 1" Properties=species:S:1:pos:R:3:force:R:3 Energy="-16.0601594"
C     0.000000000000000e+00   0.000000000000000e+00   3.000000000000000e+00 -0.00000000e+00   0.00000000e+00   0.00000000e+00
C     1.261500000000000e+00   7.283273645827129e-01   3.000000000000000e+00  0.00000000e+00   0.00000000e+00  -0.00000000e+00
