32
Lattice="9.86 0 0 4.93 8.53901048131456 0 0 0 30 " PBC="1 1 1" Properties=species:S:1:pos:R:3:force:R:3 Energy="-257.30673334"
C     4.952192395000000e+00   8.534802797195875e+00  -3.635760000000232e-02 -1.82824370e-01  -8.14971310e-01   1.60680590e-01
C     1.271256849900000e+00   6.864963946328487e-01  -1.636380000000059e-02 -1.12167171e+00   3.78791300e-01  -7.24506800e-01
C     7.426571424200000e+00   8.526722673139071e+00  -2.073419999999970e-02 -5.18933990e-01   4.05869630e-01   2.20335400e-02
C     3.714329886100000e+00   7.245054088616344e-01  -2.976269999999914e-02 -7.01849650e-01  -1.13332825e+00   2.22471260e-01
C     9.840530443999999e+00   8.509826703882505e+00  -1.313040000000143e-02  1.09528977e+00   4.34939300e-01   2.90510300e-02
C     6.140146591200000e+00   6.557447708011200e-01  -2.899500000001609e-03  8.41614430e-01   2.73137264e+00  -4.72606310e-01
C     1.233547427800000e+01   8.515018763814762e+00  -3.676769999999863e-02 -6.01473500e-01   1.06905382e+00   5.21103600e-01
C     8.651256930500001e+00   7.054557303818023e-01  -9.281399999998996e-03 -6.86121350e-01   2.77073000e-01  -1.83059720e-01
C     1.232852938700000e+00   2.104975980384878e+00  -1.028384999999972e-01 -8.37567300e-02   6.66641080e-01   1.82432027e+00
C     2.444673264900000e+00   2.823661626653868e+00   4.351920000000000e-02  3.26883700e-02   1.49264529e+00  -1.03296275e+00
C     3.664999320100000e+00   2.130937817068060e+00   1.125720000000000e-02  8.65375440e-01   5.31429040e-01  -6.79048500e-02
C     4.886240679100000e+00   2.873489997628651e+00  -3.100199999998665e-03  8.59511970e-01  -8.15438550e-01   1.31655890e-01
C     6.112147149200000e+00   2.150358344773038e+00  -4.191959999999995e-02  1.42513263e+00  -1.18424297e+00   1.91905910e-01
C     7.385455125600000e+00   2.869588779910653e+00  -6.900240000000224e-02 -5.17648540e-01  -9.48068820e-01   6.76877470e-01
C     8.630668018000000e+00   2.145462246944016e+00   1.469070000000000e-02 -4.48436740e-01  -2.20951240e-01  -6.23842720e-01
C     9.868107483599999e+00   2.848600062931022e+00   9.622200000000001e-03  1.82512760e-01  -5.51190150e-01  -6.29768570e-01
C     1.232901533710000e+01   4.296526682493646e+00   2.541180000000000e-02  1.87273140e-01  -1.97487776e+00   3.30878250e-01
C     3.689947141400000e+00   4.999930659437314e+00  -2.813009999999849e-02  3.94217530e-01  -2.80762160e-01   1.07320401e+00
C     4.932698682000000e+00   4.285666342014657e+00   3.198480000000000e-02 -5.34135520e-01   2.74049690e-01  -5.07193960e-01
C     6.171484086900000e+00   4.991120364594363e+00   2.445930000000000e-02 -1.85340780e-01  -4.66638050e-01  -7.06456780e-01
C     7.405522591999999e+00   4.294910674760305e+00  -4.910339999999991e-02  3.48926420e-01  -7.70088930e-01   1.01498130e-01
C     8.661774395300000e+00   4.976325162696087e+00  -5.861639999999824e-02 -4.40302740e-01   7.83109680e-01   5.06448140e-01
C     9.901812562499998e+00   4.269618381888860e+00   8.809200000000000e-03 -1.15590080e+00  -7.64078600e-02   1.43926690e-01
C     1.111399302520000e+01   4.992311812726638e+00   9.246090000000000e-02 -2.54962610e-01  -7.46681890e-01  -8.22283200e-01
C     1.352912691330000e+01   6.416487003858932e+00   4.232789999999999e-02  7.23429500e-01  -5.54921130e-01  -8.90788470e-01
C     4.912817766800000e+00   7.088560839010851e+00  -5.095589999999817e-02  3.88474230e-01   1.37056644e+00   4.54874610e-01
C     6.154807967500000e+00   6.392138698596050e+00  -5.785619999999980e-02  1.71440100e-02   7.53431050e-01   5.72192820e-01
C     7.384941813999999e+00   7.118572386804279e+00  -1.537859999999824e-02  9.68969760e-01  -6.07257570e-01  -3.87966940e-01
C     8.643863655999999e+00   6.422347924482089e+00  -2.351069999999922e-02 -7.92701790e-01  -1.59477033e+00  -1.92355800e-02
C     9.873663544299999e+00   7.093012481344390e+00  -9.621000000024083e-04 -6.65949380e-01   5.27296370e-01   5.51589200e-02
C     1.109792585940000e+01   6.384717871538406e+00   4.095030000000000e-02 -4.42931350e-01   1.00851773e+00   7.83632500e-02
C     1.229965629970000e+01   7.110191091847844e+00   2.297460000000000e-02  1.00438157e+00   3.58108900e-02  -2.80677200e-02
