32
Lattice="9.86 0 0 4.93 8.53901048131456 0 0 0 30 " PBC="1 1 1" Properties=species:S:1:pos:R:3:force:R:3 Energy="-253.39992672"
C     1.141337989600000e+00   1.038446313273970e+00   3.401024100000000e+00  1.60552253e+00  -1.26645645e+00   4.03321300e-02
C     2.434507802100000e+00   1.674152161231150e+00   3.225772800000000e+00 -2.45228884e+00  -2.02863010e-01  -7.66719400e-02
C     3.613299839800000e+00   9.477693655253824e-01   3.514644600000000e+00  9.21864810e-01   2.60395817e+00  -4.80253750e-01
C     4.810041317300000e+00   1.809461150517020e+00   3.460067100000000e+00  1.98791330e+00  -8.03853543e+00   1.71334351e+00
C     6.074724160100000e+00   1.043819827178929e+00   3.731503800000000e+00  2.76873800e-02  -1.30556997e+00  -1.00357326e+00
C     7.341416717400000e+00   1.658827284512798e+00   3.675131400000000e+00  9.57243760e-01   1.56155439e+00  -1.24645024e+00
C     8.622390054999999e+00   1.029610486789685e+00   3.511257300000000e+00 -2.23118044e+00  -5.76639190e-01   3.71779230e-01
C     9.794055481899999e+00   1.797024423313319e+00   3.237904800000000e+00  6.08864640e-01  -2.97323545e+00   1.41522146e+00
C     2.413614610000000e+00   3.062838200127306e+00   2.832107400000000e+00  6.12648670e-01   1.90908019e+00   1.22547301e+00
C     3.653679842900000e+00   3.839205801479849e+00   2.954677200000000e+00  2.71989970e-01   1.96002220e-01   1.07941720e+00
C     4.925715139799999e+00   3.101960701322683e+00   3.286169700000000e+00 -2.42740795e+00   4.70978916e+00  -9.94732320e-01
C     6.160776373399999e+00   3.753217880556144e+00   3.516459300000000e+00 -3.52024280e-01   2.43247036e+00   3.72478300e-01
C     7.387865156099998e+00   3.066938376789487e+00   3.538747200000000e+00  5.60894540e-01   2.17421907e+00   8.70834610e-01
C     8.638479750900000e+00   3.909894975057271e+00   3.490311900000000e+00 -2.26228077e+00  -2.20696955e+00   2.65534240e-01
C     9.832974331599999e+00   3.196440411998434e+00   3.164475600000000e+00 -1.61167253e+00   3.52918330e-01   4.83776000e-03
C     1.100699230520000e+01   3.843976119684501e+00   2.855571300000000e+00  2.67592388e+00   1.09146259e+00   2.55206930e-01
C     3.619469241800000e+00   5.292068481440540e+00   3.138635100000000e+00  2.32595146e+00  -2.04910536e+00  -1.08429140e-01
C     4.956531386600000e+00   5.949077879693749e+00   3.464172600000000e+00 -4.43837647e+00   1.23689190e+00  -7.13931390e-01
C     6.107693337899999e+00   5.220723255687941e+00   3.730680900000000e+00 -1.10481660e-01  -2.16291686e+00  -1.47787581e+00
C     7.292597688199999e+00   5.924635645315587e+00   3.869289600000000e+00  1.51692074e+00   1.18465062e+00   3.89618090e-01
C     8.558450715799999e+00   5.296185479953368e+00   3.761973000000000e+00  1.73255137e+00  -1.67948615e+00  -2.33441064e+00
C     9.792971867900000e+00   5.955966384838069e+00   3.434982300000000e+00  7.04969750e-01   2.42559051e+00   8.87044570e-01
C     1.102605000900000e+01   5.328902186266859e+00   2.948308200000000e+00 -2.35755061e+00  -2.81404480e+00   1.68310960e+00
C     1.223708311280000e+01   5.954313659359666e+00   3.141870000000000e+00  2.06226440e+00   3.68230452e+00  -1.34356470e-01
C     4.888266859800000e+00   7.413116501960769e+00   3.449226000000000e+00 -5.73798700e-01  -1.41523284e+00   2.00402212e+00
C     6.084816905399999e+00   8.093213505969592e+00   3.741734700000000e+00  2.27497880e-01   1.87418160e+00  -2.06898414e+00
C     7.301041594999999e+00   7.325088355263078e+00   3.852555300000001e+00  1.12606986e+00   3.26023269e+00  -1.15836480e-01
C     8.589717712500001e+00   8.114986189501392e+00   3.787353300000000e+00 -8.72390240e-01  -2.10050471e+00   5.84187000e-02
C     9.856312852999999e+00   7.403236183714570e+00   3.729399900000000e+00 -1.27128270e+00  -1.17106359e+00  -1.04052888e+00
C     1.107306628510000e+01   8.112073533026663e+00   3.653252100000000e+00 -1.26584084e+00   1.53422437e+00  -2.73691970e-01
C     1.228832528630000e+01   7.440404703141810e+00   3.382064100000000e+00 -1.70327564e+00  -1.89534175e+00   9.18534250e-01
C     1.346313102460000e+01   8.142164066667030e+00   3.527795100000000e+00  4.00307273e+00  -3.71565570e-01  -1.48547927e+00
