32
Lattice="9.86 0 0 4.93 8.53901048131456 0 0 0 30 " PBC="1 1 1" Properties=species:S:1:pos:R:3:force:R:3 Energy="-249.38841334"
C     1.056234461130000e+01   1.269165850768015e+00   3.648759300000000e+00 -2.70118500e+00  -3.55826683e+00  -2.82097726e+00
C     1.926051364700000e+00   1.895971231931577e+00   3.772170900000000e+00 -4.94091000e-03  -1.40222310e-01   2.05267312e+00
C     3.134253909000000e+00   1.071777316001392e+00   3.855870000000000e+00 -9.99013900e-01   4.75508120e-01   3.44611630e-01
C     4.367808879700000e+00   1.754275062806667e+00   4.009042800000000e+00 -1.59249505e+00   1.24910191e+00  -5.80016330e-01
C     5.534532721100000e+00   1.065847570953766e+00   3.648529800000000e+00  1.70563439e+00  -1.09074325e+00   2.57316840e+00
C     6.758333489599999e+00   1.791106291319946e+00   3.762591600000000e+00 -1.61926080e+00   1.79415589e+00  -1.38920937e+00
C     7.936048568800000e+00   1.198543196082232e+00   3.698201700000000e+00  5.46292772e+00  -4.73753770e+00  -3.73901120e-01
C     9.317228297600000e+00   1.912178871553350e+00   3.707910600000000e+00 -3.69620454e+00  -8.14596050e-01   1.13311128e+00
C     1.164358392890000e+01   3.292905528000889e+00   4.189375500000000e+00  4.94016362e+00  -1.84814005e+00  -2.27452700e-02
C     3.109227799299999e+00   3.959536854043170e+00   4.334504700000000e+00  2.69674510e-01   3.42494640e-01  -1.03643318e+00
C     4.357823509799999e+00   3.238158943159941e+00   4.219770899999999e+00 -6.46050080e-01  -2.48464628e+00  -1.54505000e+00
C     5.580120973400000e+00   3.812508499824024e+00   3.854070300000000e+00  9.73976730e-01   5.61112438e+00  -4.80184640e-01
C     6.832041771699999e+00   3.172461760499231e+00   3.674126400000000e+00 -1.99866897e+00   1.82876421e+00   1.91908240e+00
C     8.047067978299999e+00   3.956576037549335e+00   3.919960200000000e+00 -5.63943110e+00  -2.32523120e-01  -1.57723606e+00
C     9.171177688500000e+00   3.285669741300346e+00   4.039242600000001e+00  6.13724240e+00  -3.20599203e+00   4.46492480e-01
C     1.043479727820000e+01   3.894447136588008e+00   4.319829299999999e+00 -2.77186550e+00   5.17628665e+00  -1.69493072e+00
C     3.157034600899999e+00   5.380388918466962e+00   4.125459300000000e+00  3.47475470e-01  -6.78221700e-01  -1.51664200e-02
C     4.372604783700000e+00   6.176755650874609e+00   3.905184000000000e+00  1.79031171e+00  -2.78375544e+00  -1.38317317e+00
C     5.648071262000000e+00   5.401778712768839e+00   3.661202400000000e+00 -5.71137568e+00  -2.95753583e+00   1.66887829e+00
C     6.765364951400000e+00   6.101585460767597e+00   3.458079600000000e+00  2.01958071e+00   1.08618155e+00   8.55883070e-01
C     7.947754065000000e+00   5.313326177250292e+00   3.801432900000000e+00  9.89804120e-01   4.61174139e+00  -6.03567370e-01
C     9.136305284199999e+00   6.120955693700847e+00   3.907292700000000e+00  1.86304864e+00  -2.01875397e+00   5.08051890e-01
C     1.034762102490000e+01   5.429737738613189e+00   4.133823599999999e+00  4.61187896e+00  -3.41577663e+00  -1.75371850e-01
C     1.177954218710000e+01   5.962408726684810e+00   3.900243000000000e+00 -4.23640723e+00   2.06359311e+00   1.75188291e+00
C     4.446033091099999e+00   7.536707150994622e+00   3.607401300000000e+00 -6.43759221e+00   1.62908169e+00  -1.96039290e-01
C     5.523636977400000e+00   8.291030272111788e+00   3.182882400000000e+00  2.51382766e+00   2.57287441e+00   3.74153869e+00
C     6.736995660800000e+00   7.626611062124454e+00   3.418439700000000e+00  1.72362737e+00  -4.61194023e+00   2.69159400e-02
C     8.000389308599999e+00   8.125641935289279e+00   3.810837300000000e+00 -1.72487894e+00   6.44486941e+00  -1.90728312e+00
C     9.214062525999999e+00   7.526185809231690e+00   3.828370800000000e+00  2.16602031e+00  -2.04474024e+00   5.17975700e-02
C     1.053984976080000e+01   8.155734945242685e+00   3.767875200000000e+00 -3.48655413e+00   1.66860250e-01  -2.29768480e-01
C     1.173159877520000e+01   7.368432201679349e+00   3.809715300000000e+00 -5.28354400e-02   4.00722958e+00  -9.62239530e-01
C     1.280615473830000e+01   8.299828783120274e+00   3.695104800000000e+00  5.80356519e+00  -2.43647551e+00  -8.07945000e-02
