32
Lattice="9.82 0 0 4.91 8.50436946516319 0 0 0 30 " PBC="1 1 1" Properties=species:S:1:pos:R:3:force:R:3 Energy="-258.04827836"
C    -1.325296020415737e-05  -6.675559785768796e-04   2.999399688482824e+00  5.61604000e-03   6.82444800e-02   1.44238500e-02
C     1.227245489928369e+00   7.083962639950973e-01   3.001219089735030e+00  1.34730000e-04  -1.12168400e-02  -2.03135400e-02
C     2.454774624126818e+00   6.674997573314968e-04   3.000639617569062e+00 -8.96475000e-03  -7.09982200e-02  -8.44408000e-03
C     3.682033572951023e+00   7.083207140874670e-01   2.999636082626954e+00  2.14182400e-02   7.22847600e-02   1.93559600e-02
C     4.909129621132698e+00   1.160391800981340e-03   3.001004533065272e+00  5.50563800e-02  -8.67883900e-02  -1.04005900e-02
C     6.137647194689638e+00   7.082398207129149e-01   3.000953031092122e+00 -7.80723000e-03   4.65105400e-02  -6.55540000e-03
C     7.365428576876594e+00  -2.673803160473312e-04   3.000017637024207e+00 -1.56188000e-02   2.54741900e-02   6.86683000e-03
C     8.592559174099041e+00   7.097481977080552e-01   3.000175220884491e+00  1.01558500e-02  -7.44355800e-02  -9.23990000e-04
C     1.227913268731347e+00   2.124993161377463e+00   2.999575425681475e+00 -5.14345100e-02   5.06212500e-02   1.35920500e-02
C     2.453910966024166e+00   2.834003798709989e+00   3.001045665938491e+00  1.09100980e-01   2.72650200e-02  -1.77464100e-02
C     3.683575327372324e+00   2.126617963887548e+00   3.000571248079866e+00 -8.73414600e-02  -2.72531200e-02  -4.59907000e-03
C     4.909906090545229e+00   2.835848735073035e+00   2.999770261697402e+00  3.94138700e-02  -7.33929800e-02   3.59805000e-03
C     6.137949770166645e+00   2.126460409746955e+00   3.000242468513618e+00 -3.29791600e-02  -2.98012900e-02   5.23900000e-03
C     7.364317606707556e+00   2.835237508571292e+00   3.000928128222889e+00  6.06822600e-02  -5.23522500e-02  -4.96075000e-03
C     8.593228440881356e+00   2.125925431809141e+00   3.001025891028034e+00 -2.80071200e-02   6.58402400e-02  -1.30132400e-02
C     9.820691901678819e+00   2.835344038654410e+00   2.999079018272517e+00 -1.70618100e-02  -2.30790600e-02   1.98268200e-02
C     2.456022037243161e+00   4.251909063071201e+00   2.999496552034269e+00 -8.85661600e-02   6.16510000e-03   1.58524300e-02
C     3.682786575623144e+00   4.960803250504008e+00   2.999399357034716e+00  1.81795600e-02   5.99520000e-03   4.99258000e-03
C     4.910832234906769e+00   4.251395742723386e+00   2.999330065289061e+00 -3.92105500e-02   8.10938100e-02  -1.66733000e-03
C     6.137892496675015e+00   4.960830918393440e+00   2.998952813225439e+00 -3.83233800e-02  -4.00977800e-02   3.08332000e-03
C     7.364113646974968e+00   4.251232946717426e+00   2.999945462090102e+00  8.02720500e-02   9.50374800e-02  -9.15360000e-04
C     8.592598927242861e+00   4.962006752437408e+00   3.000205710124545e+00 -3.32760200e-02  -6.14137000e-02   6.48126000e-03
C     9.820065460343613e+00   4.253221387482707e+00   3.001029275975380e+00 -1.42967600e-02  -3.24744800e-02  -1.05792500e-02
C     1.104689118176298e+01   4.961330551071168e+00   3.001139797871168e+00  8.09852500e-02  -1.26631700e-02  -1.66407800e-02
C     3.681829690843446e+00   6.378807421094794e+00   3.000731001063893e+00  7.42733200e-02  -2.38010100e-02  -1.40176500e-02
C     4.911072224195135e+00   7.087842943029809e+00   2.999807394955454e+00 -1.00959620e-01  -7.47695900e-02  -3.11933000e-03
C     6.136285854878054e+00   6.377135193254548e+00   2.998806637672753e+00  1.11246240e-01   7.28706800e-02   3.13867000e-03
C     7.365218273879286e+00   7.086687302354007e+00   2.999054380521432e+00 -3.65253800e-02   1.98926400e-02   1.33179100e-02
C     8.593394734591822e+00   6.379066766884232e+00   3.000583042086450e+00 -3.90627200e-02  -2.39676300e-02  -1.06244500e-02
C     9.820835544937708e+00   7.086732808251669e+00   3.000610362103129e+00 -2.57414300e-02   7.47753900e-02  -1.98851000e-03
C     1.104764639028799e+01   6.378555097116489e+00   2.999504339554319e+00  5.10262000e-03  -1.36709100e-02   1.79315900e-02
C     1.227525134087091e+01   7.086792090943898e+00   3.000094626464770e+00 -6.46053000e-03   2.01052000e-02  -1.19058000e-03
