32
Lattice="9.86 0 0 4.93 8.53901048131456 0 0 0 30 " PBC="1 1 1" Properties=species:S:1:pos:R:3:force:R:3 Energy="-257.12831338"
C     5.039930766900000e+00   6.684164318001571e+00  -2.593967999999975e-01  1.44719770e-01   1.54509510e+00   3.62687800e-02
C     6.273334189400000e+00   7.435769813643372e+00  -1.651778999999998e-01 -5.55931030e-01   4.93727180e-01  -5.46200440e-01
C     7.516761928799999e+00   6.763266039313784e+00  -9.771749999999813e-02 -2.44294730e-01  -6.49248120e-01  -2.75589530e-01
C     8.736268371500000e+00   7.475961313560740e+00  -1.999598999999996e-01  1.91979720e-01  -1.44122720e-01   4.32994490e-01
C     9.973950195899999e+00   6.770044562003123e+00  -2.716884000000022e-01 -8.32687040e-01  -1.77428101e+00  -4.43164430e-01
C     1.119208328850000e+01   7.475524970125212e+00  -3.437391000000005e-01  2.42853890e-01  -7.04675590e-01  -3.66479800e-01
C     1.241137005040000e+01   6.740584036555970e+00  -4.478499000000014e-01  1.16828120e+00   1.10833808e+00   7.57110410e-01
C     1.369465999500000e+01   7.439027958482121e+00  -3.843986999999984e-01 -1.25502513e+00   1.20607000e-03   1.66110770e-01
C     1.338669423400000e+00   3.312345353869552e-01  -2.969909999999985e-01 -1.25244870e+00  -3.09387200e-02   3.78287400e-02
C     2.544682061700000e+00   1.054097721753076e+00  -2.281803000000018e-01  6.62429490e-01   5.25243900e-01  -4.96304680e-01
C     3.772475982300000e+00   3.500450361832424e-01  -1.992498000000005e-01  1.54474099e+00   3.84846780e-01   5.57633300e-02
C     5.054136019600000e+00   1.056998167442817e+00  -2.027994000000000e-01 -1.72660577e+00  -2.64240120e-01  -6.67285000e-02
C     6.268608488600000e+00   3.464739366104016e-01  -2.804670000000016e-01 -4.06800000e-03   2.83643640e-01   2.61941320e-01
C     7.485072480400000e+00   1.061604963596777e+00  -2.597117999999980e-01  1.41515668e+00  -5.60010000e-03  -7.07624900e-02
C     8.743093611399999e+00   3.497069767583392e-01  -3.577844999999975e-01 -1.10258318e+00  -9.38243920e-01  -1.14808470e-01
C     9.941490878700000e+00   1.065026630486218e+00  -4.228568999999993e-01  1.41255570e+00  -9.11243530e-01   6.74774400e-01
C     2.584072958900000e+00   2.494682073154471e+00  -3.266580000000019e-01 -1.38609725e+00  -1.17564348e+00  -1.22143930e-01
C     3.783781902000000e+00   3.181704470832888e+00  -1.922540999999995e-01  1.23108654e+00   2.92768720e-01  -3.20990990e-01
C     5.040864459600000e+00   2.465534587831515e+00  -1.564142999999980e-01  3.19798690e-01   8.79745760e-01   5.33726790e-01
C     6.291578147400000e+00   3.188175674535051e+00  -5.689590000000067e-02 -7.95148590e-01   1.05677300e-02  -5.87305030e-01
C     7.528119662799999e+00   2.490488479717638e+00  -1.302017999999983e-01 -9.47390270e-01  -9.95309740e-01  -2.96862350e-01
C     8.749129656899999e+00   3.190456358844154e+00  -2.384798999999980e-01 -4.97851880e-01  -6.32693960e-01  -3.72470180e-01
C     9.942550039899999e+00   2.468982213312815e+00  -4.354539000000024e-01  1.65514332e+00   9.00520380e-01   4.55915100e-02
C     1.121598530890000e+01   3.197078703031814e+00  -5.102943000000018e-01 -1.22883120e+00  -1.52451957e+00   7.01637490e-01
C     3.779135031900000e+00   4.606438284030784e+00  -2.250200999999983e-01 -7.17735540e-01  -2.04584970e-01  -6.30296970e-01
C     5.020593827900000e+00   5.264451699136229e+00  -1.878363000000007e-01 -6.51661200e-02   1.59553888e+00   1.47018240e-01
C     6.257199186799999e+00   4.615449245620013e+00  -9.015510000000049e-02  1.24566041e+00  -6.39005290e-01   3.93479950e-01
C     7.507690432999999e+00   5.344566147091371e+00  -7.238849999999886e-02 -5.56014120e-01  -9.95461710e-01  -4.29366820e-01
C     8.722369123899998e+00   4.590600981293528e+00  -2.215355999999993e-01 -5.15540220e-01   1.14161057e+00   2.74135230e-01
C     9.925476907599998e+00   5.279730806758408e+00  -3.617879999999971e-01  1.33346633e+00   2.45656281e+00  -6.94363900e-02
C     1.115936085720000e+01   4.584163165122341e+00  -5.175203999999987e-01  9.93578450e-01   1.74461356e+00   8.63758080e-01
C     1.240223683100000e+01   5.344351988708533e+00  -4.053059999999995e-01  1.21967580e-01  -1.77421660e+00  -1.73228560e-01
