32
Lattice="9.86 0 0 4.93 8.53901048131456 0 0 0 30 " PBC="1 1 1" Properties=species:S:1:pos:R:3:force:R:3 Energy="-255.63927374"
C     5.022202141799999e+00   8.170147428691248e+00  -3.608225999999988e-01 -2.57555988e+00  -3.09688660e+00   2.41863970e-01
C     1.262495401800000e+00   2.594072824927584e-01  -2.501802000000026e-01  4.29589761e+00   1.45249863e+00  -1.47311823e+00
C     7.500936185100000e+00   8.074890070331085e+00  -3.462974999999986e-01 -8.15019380e-01   8.99358960e-01   1.21856734e+00
C     3.825050044600000e+00   2.621230293858176e-01  -3.343799999999995e-01 -8.62010540e-01   7.97782300e-01  -1.43298731e+00
C     9.982632271000000e+00   8.135117675218934e+00  -4.113344999999988e-01 -5.55082540e-01  -2.27406432e+00   4.91339530e-01
C     6.293080614200000e+00   2.875510071337904e-01  -3.571068000000004e-01 -2.32960252e+00   2.37672980e-01  -2.59478890e-01
C     1.241219730440000e+01   8.084096233699887e+00  -3.890214000000007e-01  1.20840146e+00   2.80217727e+00   2.35875780e-01
C     8.687190467999999e+00   3.340438698348752e-01  -2.805293999999989e-01  6.12833140e-01  -4.31690618e+00  -1.15733060e+00
C     1.259671399200000e+00   1.686241606878629e+00  -4.223502000000003e-01  2.55023140e+00  -1.20055416e+00   1.03636739e+00
C     2.523382588300000e+00   2.351507118194634e+00  -4.665612000000010e-01  5.86946700e-01   2.13824617e+00  -1.06079553e+00
C     3.807333152900000e+00   1.688999451093355e+00  -5.294445000000003e-01 -2.24205790e+00   3.45734360e-01   1.54018801e+00
C     4.955525173600000e+00   2.496082214702877e+00  -4.604123999999992e-01  2.54468918e+00  -2.27556827e+00   3.94583560e-01
C     6.203780418299999e+00   1.720487906139402e+00  -3.244380000000007e-01  4.77893280e-01   2.36624350e-01  -6.41642670e-01
C     7.456450971000000e+00   2.370653543663205e+00  -3.469778999999988e-01 -7.80251750e-01   2.72828514e+00   2.49641950e-01
C     8.665615752699999e+00   1.672795141685668e+00  -3.660204000000000e-01  1.11792231e+00   2.41266895e+00   5.75195240e-01
C     9.932743678300000e+00   2.370435030385022e+00  -4.131854999999973e-01 -1.48442375e+00   1.37380058e+00  -6.67431760e-01
C     2.558781861700000e+00   3.830854990790828e+00  -5.712009000000009e-01  8.07837400e-02  -9.84286750e-01   7.32952960e-01
C     3.786838649900000e+00   4.579065119695467e+00  -5.339597999999981e-01  1.95630550e-01  -5.98090520e-01  -4.47160200e-02
C     5.028908913800000e+00   3.912910185047864e+00  -4.435764000000013e-01 -9.94971400e-01  -2.19135157e+00  -3.98252200e-01
C     6.267398370800000e+00   4.558190910846373e+00  -3.742250999999968e-01 -9.24311810e-01  -3.52277120e-01   4.05776290e-01
C     7.488082639800000e+00   3.832295607248909e+00  -3.271725000000032e-01 -6.27228870e-01  -8.94210140e-01  -5.08731710e-01
C     8.699454434600000e+00   4.533473207990126e+00  -4.079592000000005e-01  2.09816481e+00  -2.12633689e+00  -2.28870790e-01
C     9.957154671900000e+00   3.775776323832313e+00  -5.401790999999996e-01 -4.54446600e-02   2.46985220e+00   1.11253593e+00
C     1.121745932960000e+01   4.560006816815050e+00  -5.208650999999982e-01 -1.77728198e+00  -3.24527700e-01  -6.70961900e-01
C     3.815322563000000e+00   5.968132510799659e+00  -5.336396999999984e-01 -1.23070178e+00   2.21463389e+00  -4.38177940e-01
C     5.052991421500000e+00   6.708655566299887e+00  -4.987347000000000e-01 -3.65637738e+00   7.68271980e-01   1.00125365e+00
C     6.151904986300000e+00   5.950132191317715e+00  -3.280130999999997e-01  6.47786448e+00   1.48244037e+00  -2.01940880e-01
C     7.488346296200000e+00   6.675969515034019e+00  -2.668071000000012e-01 -4.04739810e-01  -1.50657495e+00  -7.06808830e-01
C     8.757470280200000e+00   5.909501786261674e+00  -3.629300999999998e-01 -2.27170255e+00   2.85906429e+00   1.54512010e-01
C     9.948038214499999e+00   6.663467976740775e+00  -4.415240999999988e-01  7.64388700e-01   1.74061244e+00   1.46877140e-01
C     1.119811637600000e+01   6.037685654422822e+00  -5.172671999999991e-01 -1.62186800e-02  -3.09887603e+00  -1.63624540e-01
C     1.242885321080000e+01   6.718363652704704e+00  -5.458776000000007e-01  5.81339850e-01  -1.71921364e+00   5.17339040e-01
