26
Lattice="8.88768389401873 1.33226762955019e-15 0 4.44384194700937 7.69696003302603 0 0 0 30 " PBC="1 1 1" Properties=species:S:1:pos:R:3:force:R:3 Energy="-202.95371221"
C     3.847766320887415e-01   6.078101529866268e-01   3.888341100000000e+00  3.45991408e+00  -1.87317694e+00  -9.99526080e-01
C     7.314637036470510e+00   7.579467397564455e+00   4.236168900000000e+00  6.94429380e-01   5.63398051e+00  -1.11346630e-01
C     4.290861797541284e+00   4.099371663529886e-01   4.348488000000001e+00 -2.04885300e+00  -5.49086210e-01  -9.21717130e-01
C     9.715407360103702e+00   7.061050662001452e+00   4.448546400000001e+00  2.29642140e-01   7.27640832e+00  -2.59435818e+00
C     1.099484144933190e+01   7.541248450413891e+00   3.928885200000000e+00  7.35258740e-01  -7.51800546e+00   1.87957068e+00
C     1.209149387478976e+01   6.479493993011552e+00   3.796347300000000e+00 -2.63057676e+00   3.80320235e+00   1.85595100e-02
C     4.492441715877697e+00   6.950570345001239e+00   3.617346600000000e+00  2.85464005e+00  -1.55405562e+00   1.25523392e+00
C     5.551965130929721e+00   5.980176801945392e+00   3.717872700000000e+00  2.26105254e+00  -2.03628066e+00   6.91329120e-01
C     7.024210322997586e+00   6.260359385808644e+00   4.177553100000000e+00 -4.27762147e+00  -3.06604920e-01  -2.76291736e+00
C     8.036038115764509e+00   5.282768030580742e+00   4.124733900000000e+00 -1.75832545e+00   4.79477156e+00   1.52716932e+00
C     9.285800005791881e+00   5.827975651889767e+00   4.341028500000000e+00  2.96320598e+00  -7.75995215e+00   1.09769572e+00
C     1.036570754599755e+01   4.795745424679303e+00   4.465554000000000e+00  1.61068185e+00   1.94524855e+00  -3.07342164e+00
C     1.174846447103280e+01   5.200001849682149e+00   4.029130200000000e+00 -5.84449950e-01  -5.31721228e+00   3.55857650e-01
C     3.844622079205787e+00   4.056197952299210e+00   3.742145700000000e+00  1.34683313e+00   5.06876418e+00   9.44815790e-01
C     5.309281322139126e+00   4.543470555462425e+00   3.595708200000000e+00 -2.98040352e+00   5.88872960e-01   1.32977766e+00
C     6.348424344835527e+00   3.589938511835497e+00   3.792954300000000e+00 -3.72630211e+00  -2.66777600e-02  -8.76100890e-01
C     7.625658287883892e+00   4.019550801356372e+00   4.032707700000000e+00  2.05394792e+00  -4.76879391e+00  -6.87400540e-01
C     8.591637407937405e+00   3.007839207163483e+00   4.080035400000000e+00  3.64259270e+00  -2.23456865e+00  -4.25774500e-02
C     1.009004643058411e+01   3.461875490251554e+00   4.262689500000000e+00 -3.30415614e+00  -5.09322678e+00   7.41763650e-01
C     2.173025381076696e+00   2.305287711954788e+00   4.330845900000000e+00 -3.42799170e-01   1.92443272e+00  -2.78039139e+00
C     3.549408814708514e+00   2.754715517194497e+00   4.035289200000000e+00 -1.10413801e+00  -2.17711181e+00   6.07699010e-01
C     4.609467712723951e+00   1.798237000298485e+00   3.998415000000000e+00 -1.51989843e+00  -9.41223970e-01   7.97849620e-01
C     5.918644213863078e+00   2.224775508831380e+00   3.782584800000000e+00  1.98397920e+00  -2.25089739e+00   3.91713540e-01
C     6.879537978864046e+00   1.083194031687503e+00   3.732102900000000e+00  2.09029477e+00   7.73564914e+00   4.34095370e-01
C     8.305459407200271e+00   1.520312704508036e+00   3.839694600000000e+00 -3.06428017e+00   5.01151490e+00   3.57987230e-01
C     1.787126678396945e+00   9.279391897095753e-01   4.021944900000000e+00  1.41533170e+00   6.24029340e-01   2.41863948e+00
