32
Lattice="9.86 0 0 4.93 8.53901048131456 0 0 0 30 " PBC="1 1 1" Properties=species:S:1:pos:R:3:force:R:3 Energy="-256.87601741"
C     4.968109886000000e+00   8.344328896945642e+00  -5.357406000000005e-01 -1.60526235e+00  -1.00100476e+00   2.70461660e-01
C     1.230791952200000e+00   5.087713224193601e-01  -5.363693999999981e-01  1.35292617e+00   1.98618530e-01   2.37344770e-01
C     7.417353951099999e+00   8.371394571513575e+00  -5.879696999999986e-01 -1.44164350e-01  -6.92179050e-01   6.86223450e-01
C     3.728122990800000e+00   5.411907003879376e-01  -4.480746000000018e-01 -3.43063670e-01  -1.24720040e+00  -8.75779230e-01
C     9.878402211000001e+00   8.325158818418041e+00  -4.710245999999998e-01  3.92701830e-01   1.41128307e+00   3.18827380e-01
C     6.195337990499999e+00   4.961519457814920e-01  -4.893459000000000e-01  9.18092700e-02   5.43564680e-01   5.09537410e-01
C     1.236821435870000e+01   8.375143026334085e+00  -4.162376999999999e-01 -1.03169940e-01  -1.17835710e+00  -4.25322430e-01
C     8.671042548799999e+00   5.667442015899664e-01  -4.890903000000009e-01 -4.64544060e-01  -3.18829563e+00  -2.11585060e-01
C     1.212816383400000e+00   1.915051736239242e+00  -3.600519000000020e-01  7.80752010e-01   5.86463020e-01  -5.66672900e-01
C     2.442752536900000e+00   2.625168741661866e+00  -3.063834000000014e-01  1.61652009e+00   9.68515280e-01   1.89420010e-01
C     3.732817780500000e+00   1.961049250942382e+00  -3.991235999999994e-01 -2.47463787e+00  -1.65061642e+00   3.61399140e-01
C     4.927916138300000e+00   2.610581891619302e+00  -4.125702000000011e-01  3.27427555e+00   1.42607555e+00  -2.01406750e-01
C     6.235425200899999e+00   1.915218844674335e+00  -4.867884000000018e-01 -3.57613317e+00  -1.49739400e-01  -2.41285940e-01
C     7.412002929100000e+00   2.631902434546185e+00  -5.542452000000004e-01  4.09508160e-01   6.82101210e-01   1.00469950e-01
C     8.624912588099999e+00   1.929048455267534e+00  -5.613612000000003e-01  1.65128468e+00   1.85811454e+00   7.60721860e-01
C     9.869820165600000e+00   2.645991716448080e+00  -4.076553000000018e-01 -8.38239680e-01  -4.62881410e-01  -5.22970320e-01
C     2.499034895899999e+00   4.057914452222831e+00  -1.896453000000022e-01  2.70783850e-01   4.32568500e-02  -4.09759560e-01
C     3.800890974000000e+00   4.791037601241091e+00  -2.389073999999987e-01 -3.57300325e+00  -1.23936684e+00  -5.01734840e-01
C     4.977364679199999e+00   4.035266007776203e+00  -4.053231000000004e-01 -1.09196000e-01   4.98517460e-01  -1.52435700e-02
C     6.197603128299999e+00   4.746075697728966e+00  -5.707526999999999e-01 -6.62960160e-01   6.03559320e-01   9.87674230e-01
C     7.410881354099999e+00   4.058171134877860e+00  -5.442008999999999e-01  4.40715410e-01  -5.55993580e-01  -2.03078200e-01
C     8.626087801500001e+00   4.757072918545949e+00  -4.599807000000027e-01  6.27984010e-01   1.57610148e+00  -2.97954060e-01
C     9.862927532600001e+00   4.050578161368939e+00  -3.889880999999988e-01  7.39132270e-01   6.85749250e-01   6.51252220e-01
C     1.111077151670000e+01   4.759375377331775e+00  -2.295456000000016e-01 -1.38870750e-01   7.69992700e-01  -9.21174800e-02
C     3.682359329100000e+00   6.202383270687604e+00  -3.547334999999983e-01  1.56178597e+00   1.28356920e-01   1.70548370e-01
C     4.920446103700000e+00   6.887549543657983e+00  -4.895333999999991e-01  7.49076860e-01   1.18477715e+00  -1.31166000e-03
C     6.163946954999999e+00   6.168384431950541e+00  -5.177273999999983e-01  3.41683800e-02   1.04783587e+00  -8.32844280e-01
C     7.390549984799999e+00   6.927804403033114e+00  -5.997158999999996e-01  4.93354450e-01  -1.67117160e-01   5.43360790e-01
C     8.625512470499999e+00   6.216853307066803e+00  -4.873082999999987e-01  5.22716770e-01  -7.10191150e-01   7.21101200e-02
C     9.893684767300000e+00   6.927419037490151e+00  -3.905469000000004e-01 -1.95313387e+00  -1.10085213e+00  -1.17910990e-01
C     1.108701350160000e+01   6.205346051153850e+00  -2.326671000000005e-01  1.45866953e+00   3.64783900e-02  -8.09338200e-01
C     1.233583056910000e+01   6.945668952248426e+00  -3.339018000000031e-01 -4.81786140e-01  -9.05566260e-01   4.66964130e-01
