2
Lattice="2.521 0 0 1.2605 2.18325004294057 0 0 0 30 " PBC="1 1 1" Properties=species:S:1:pos:R:3:force:R:3 Energy="-16.06482712"
C     0.000000000000000e+00   0.000000000000000e+00   3.000000000000000e+00 -0.00000000e+00   0.00000000e+00   0.00000000e+00
C     1.260500000000000e+00   7.277500143135232e-01   3.000000000000000e+00  0.00000000e+00   0.00000000e+00   0.00000000e+00
