32
Lattice="10.048 0 0 5.024 8.70182325722604 0 0 0 30 " PBC="1 1 1" Properties=species:S:1:pos:R:3:force:R:3 Energy="-257.33161434"
C    -2.071916084283480e-03  -5.134256533973269e-04   2.999783485601637e+00  1.50639700e-01   8.37067000e-03  -4.54284200e-02
C     1.257021947225117e+00   7.212995050598656e-01   2.998866037063106e+00 -1.53834460e-01   2.47897980e-01   4.45037000e-02
C     2.507923176357091e+00   1.283096162209591e-03   3.001840114611162e+00  2.40857120e-01  -7.02981700e-02  -5.71190700e-02
C     3.765548115774369e+00   7.256988358326339e-01   2.997844460550176e+00  1.13108160e-01  -9.42534000e-03   4.94724500e-02
C     5.025009223396530e+00  -9.781458087868293e-04   2.999062784984964e+00 -9.87184600e-02   1.07801880e-01   1.17386500e-02
C     6.280843238247626e+00   7.284421678624765e-01   3.003738002367431e+00  3.67014000e-03  -2.22104290e-01  -9.19824000e-02
C     7.535662081964202e+00  -2.776030086584587e-04   2.997697556644344e+00  4.45680300e-02   7.76072800e-02   3.40928000e-02
C     8.795157557013926e+00   7.265420043272657e-01   2.996689585857360e+00 -1.87227300e-01  -1.47161620e-01   4.54455100e-02
C     1.258897086130792e+00   2.176392466226319e+00   3.001752506159730e+00 -1.82857010e-01  -1.38841220e-01  -4.17158500e-02
C     2.511921357550030e+00   2.900767964186504e+00   3.001290594165479e+00  2.79583600e-02   1.65660200e-02   5.09774000e-03
C     3.769937865571324e+00   2.176654190619375e+00   3.002017926380455e+00 -1.08024670e-01  -5.80974800e-02  -1.06575000e-02
C     5.022625418712588e+00   2.902889402306095e+00   3.003804956141709e+00  1.73935110e-01  -2.80013230e-01  -7.61987900e-02
C     6.283034299926148e+00   2.172221073274139e+00   2.997011217235556e+00 -6.52963000e-02   3.39244660e-01   1.11450020e-01
C     7.539694671515911e+00   2.903219776887849e+00   3.003226792271152e+00 -1.53078580e-01  -1.61497870e-01  -6.76373400e-02
C     8.794401721914566e+00   2.173665979905489e+00   3.001970482817932e+00 -1.01691950e-01   1.39439180e-01  -3.88621300e-02
C     1.004516002987843e+01   2.899223643052052e+00   2.998372788140003e+00  2.99536370e-01   3.38055400e-02   4.93358900e-02
C     2.509612558743103e+00   4.350241942267389e+00   3.000001302062440e+00  1.65938380e-01   4.22635500e-02   2.35695900e-02
C     3.771826598406639e+00   5.072958723525919e+00   3.003473664498780e+00 -2.59472640e-01   1.66055470e-01  -4.96091500e-02
C     5.022404048877403e+00   4.346252878138810e+00   2.999323819001365e+00  1.69990400e-01   2.19622220e-01   7.44145900e-02
C     6.281380559561585e+00   5.073963110077173e+00   3.003118219665645e+00 -1.67815030e-01   2.13721470e-01  -4.33879700e-02
C     7.533317793463524e+00   4.354142332292500e+00   2.998564167351293e+00  1.89776440e-01  -1.69753050e-01   5.11230100e-02
C     8.792135645819030e+00   5.075019240992707e+00   2.998297515606670e+00 -1.81934400e-02   5.46040100e-02   6.71102000e-03
C     1.005001980836086e+01   4.350113731810175e+00   2.999851950596972e+00 -1.96015560e-01  -2.90636000e-02  -2.59700300e-02
C     1.130212066057288e+01   5.075442563503704e+00   2.998590126485665e+00  1.05685590e-01  -4.37477100e-02   4.75005000e-03
C     3.770375257556537e+00   6.528508748772651e+00   3.000851482038673e+00 -1.15155810e-01  -1.87985470e-01  -9.86197000e-03
C     5.024594195410169e+00   7.251103686222157e+00   2.997891474227628e+00 -5.02994700e-02   8.77708100e-02   5.68365400e-02
C     6.280298385110059e+00   6.530742429295876e+00   3.003453293392921e+00  2.29817900e-02  -2.82233440e-01  -4.93506800e-02
C     7.536509546051399e+00   7.253060662816373e+00   2.999096020853529e+00 -8.06625800e-02  -5.13557100e-02   3.69130900e-02
C     8.788452306955280e+00   6.523816604769897e+00   2.998290510875931e+00  2.11917890e-01   1.46243570e-01  -7.91617000e-03
C     1.004888214445551e+01   7.252687504516752e+00   2.997347845092392e+00 -7.98082200e-02  -1.53951910e-01   6.71253000e-03
C     1.130418839594646e+01   6.523058970812156e+00   2.997221686293137e+00 -8.00475200e-02   1.72941940e-01   1.90578700e-02
C     1.255722738084795e+01   7.252128830152813e+00   2.999340065216711e+00  1.77635540e-01  -6.84261200e-02  -1.55275700e-02
