32
Lattice="9.86 0 0 4.93 8.53901048131456 0 0 0 30 " PBC="1 1 1" Properties=species:S:1:pos:R:3:force:R:3 Energy="-256.81775514"
C     9.839610012999998e+00   4.503436555505888e-01   1.968462000000000e-01  1.55964723e+00   4.15387310e-01  -9.31347880e-01
C     1.199595996800000e+00   1.201428015382795e+00   6.772950000000000e-02  8.95148620e-01  -1.03989505e+00   7.93468670e-01
C     2.447567125600000e+00   4.713380082771360e-01   1.433541000000000e-01  1.12248896e+00   4.20603740e-01  -9.44739470e-01
C     3.738910816800000e+00   1.151079960230200e+00  -2.238899999998267e-03 -1.70202640e+00   1.18076568e+00   8.67056770e-01
C     4.981617938099999e+00   4.812788681076376e-01   4.989660000000000e-02 -1.54920709e+00  -1.79020945e+00  -7.99705800e-02
C     6.207800241700000e+00   1.198151340891305e+00   1.143477000000000e-01 -1.27695250e+00  -6.81290420e-01  -8.01730340e-01
C     7.406837768099999e+00   4.623401967640456e-01   9.698400000000000e-02  1.07994585e+00   4.61224600e-02   4.73955560e-01
C     8.662465926399999e+00   1.171852469464477e+00   1.618353000000000e-01 -2.08811787e+00   5.20595110e-01  -7.48743000e-03
C     1.106296338400000e+01   2.621158395389934e+00  -5.125260000000154e-02  8.20695500e-02  -1.20172555e+00  -2.65453140e-01
C     2.442232816300000e+00   3.272495585151593e+00  -1.526516999999998e-01  1.24263493e+00   1.63466140e+00   5.84857400e-01
C     3.669538864100000e+00   2.580406053264239e+00  -3.569639999999907e-02  2.15382794e+00   1.95984110e-01  -5.00740770e-01
C     4.971749852899999e+00   3.335804833531570e+00  -5.621699999998953e-03 -2.92966613e+00  -2.34919022e+00  -9.71750200e-02
C     6.164086671200000e+00   2.619760900934777e+00   5.304180000000000e-02  8.91698080e-01  -9.73289850e-01   6.91399890e-01
C     7.389601797899999e+00   3.301685680136844e+00   1.288500000000000e-01  5.35136530e-01   7.24799530e-01   8.78332300e-02
C     8.638746661099999e+00   2.612969228169300e+00   1.417506000000000e-01 -5.13198010e-01  -8.81985110e-01  -6.02450510e-01
C     9.839608928399999e+00   3.320748081742291e+00  -4.927650000000128e-02  1.38362850e-01   3.15240170e-01   8.60221590e-01
C     1.239061120080000e+01   4.726013377996310e+00  -1.641311999999999e-01 -3.71277752e+00  -6.82822190e-01  -1.27409310e-01
C     3.715307702300000e+00   5.405683175310818e+00  -7.787520000000114e-02  1.26163201e+00   1.37374686e+00   2.37285740e-01
C     4.941936959700000e+00   4.708199721283459e+00   7.043100000000000e-03  4.50793300e-01   1.49358286e+00   1.53681650e-01
C     6.154327341800000e+00   5.441488868665450e+00   1.345653000000000e-01  1.11009600e-02   1.73322870e-01  -5.18633280e-01
C     7.371836148500000e+00   4.725476188847014e+00   1.584198000000000e-01  7.42706050e-01  -2.15927400e-02  -5.64140390e-01
C     8.604503719200000e+00   5.433948410070981e+00   3.929430000000000e-02  3.89529410e-01  -6.14714490e-01   3.01531350e-01
C     9.841100302699999e+00   4.732019120237208e+00  -4.456890000000158e-02  1.20842472e+00   1.02097768e+00  -6.99619280e-01
C     1.111997296730000e+01   5.473043501042718e+00  -1.542896999999996e-01 -6.95746360e-01  -1.81819478e+00   5.85825160e-01
C     1.360036186370000e+01   6.835603327303951e+00   1.902900000000000e-02 -2.60415432e+00   5.73486300e-01  -2.00012000e-02
C     4.926893360499999e+00   7.568581398534156e+00   1.134993000000000e-01  5.27255060e-01  -1.96952500e-02   1.46022820e-01
C     6.156291207300000e+00   6.866512837439456e+00   1.039584000000000e-01  9.66315390e-01   3.06550630e-01   7.99925350e-01
C     7.409144268600000e+00   7.597747328119749e+00   1.796022000000000e-01 -1.43769363e+00  -1.18367861e+00  -8.11465430e-01
C     8.622527158299999e+00   6.837258870655814e+00   3.989520000000001e-02 -1.70827890e+00   1.05720618e+00   5.72840350e-01
C     9.797721232699999e+00   7.542163407911132e+00   5.723400000000000e-03  3.65829594e+00   2.39905963e+00   8.04216700e-02
C     1.106681706640000e+01   6.877727888413783e+00  -4.953749999999957e-02  7.74055500e-01  -2.96782450e-01  -4.68234100e-02
C     1.232483617610000e+01   7.575573140315180e+00   3.294360000000000e-02  5.26749850e-01  -2.97026370e-01  -2.17139770e-01
