26
Lattice="8.88768389401873 1.33226762955019e-15 0 4.44384194700937 7.69696003302603 0 0 0 30 " PBC="1 1 1" Properties=species:S:1:pos:R:3:force:R:3 Energy="-206.43192533"
C     8.798392929476863e+00   1.188187416791130e-02  -6.905520000000109e-02 -1.12890638e+00  -5.36494536e+00   7.97830400e-02
C     9.533563614797181e+00   7.340045989780076e+00  -3.041310000000053e-02 -7.91799800e-01   3.02789844e+00  -1.32017606e+00
C     1.087712092073107e+01   7.002465019824306e+00   1.830747000000000e-01 -1.17979669e+00  -2.07768412e+00  -4.46661610e-01
C     1.114583017687784e+01   5.558112151429935e+00   1.205277000000000e-01  1.30042986e+00   3.47596845e+00   8.21799600e-01
C     7.174309395045238e+00   6.831228056100885e+00  -4.313828999999991e-01 -2.42819587e+00   3.82970700e-02  -2.41919910e-01
C     8.519176478890193e+00   6.395426794959088e+00  -2.533287000000009e-01 -1.00833320e-01  -7.58410420e-01   1.17649523e+00
C     8.868318341075472e+00   5.013910907644833e+00  -3.683009999999953e-02 -3.70123147e+00  -6.31545840e-01  -6.56637700e-01
C     1.016924009418098e+01   4.590948483711476e+00  -9.095699999999596e-03  1.13135315e+00  -6.69026230e-01  -6.16236210e-01
C     1.054508904653816e+01   3.252875701228947e+00  -3.252854999999997e-01 -1.64738307e+00  -1.72601685e+00   5.96364210e-01
C     4.655626479603431e+00   6.258336778651961e+00  -7.731689999999958e-02  1.08690328e+00   6.88217670e-01   6.27063140e-01
C     6.084825063095771e+00   5.887820208849419e+00  -2.336181000000010e-01 -6.74160370e-01  -2.17866069e+00   2.91150570e-01
C     6.414091531072528e+00   4.443843259982913e+00  -1.102160999999988e-01 -6.70372450e-01  -1.14877610e-01   8.07893170e-01
C     7.807468660108243e+00   4.003538353588362e+00  -1.116660000000280e-02 -1.85729200e+00   3.37728329e+00  -8.11831190e-01
C     8.059752943233430e+00   2.664126607939013e+00  -4.248449999999693e-02  3.54556180e+00  -2.51046530e+00  -7.63028870e-01
C     9.470892152980866e+00   2.253279737880079e+00  -3.518292000000010e-01 -4.79196450e-01   1.82107973e+00   1.16231429e+00
C     3.599337646953028e+00   5.268615553203981e+00   1.630578000000000e-01  3.77161678e+00  -2.64606012e+00  -2.70998110e+00
C     3.992456168927504e+00   3.818903445479921e+00  -1.567052999999987e-01 -8.00423300e-02   1.35148899e+00   1.53725554e+00
C     5.328848579556167e+00   3.388246370604573e+00  -4.720920000000106e-02  2.54727555e+00   2.89752010e+00  -1.06910547e+00
C     5.714874285455990e+00   2.021294132271882e+00  -8.607719999999830e-02  4.25155890e-01   1.15132348e+00   5.94811900e-01
C     7.093525899913184e+00   1.636724067998566e+00   4.071870000000000e-02 -1.86811745e+00   2.04771929e+00  -1.61286610e-01
C     7.414457586885408e+00   3.015370297704836e-01   1.229517000000000e-01  1.74654587e+00  -1.12485730e-01  -2.70726270e-01
C     3.017814444275611e+00   2.824951278073051e+00  -3.688283999999982e-01 -6.30048230e-01   4.40742930e-01  -5.70406290e-01
C     3.365983727202581e+00   1.427689565686224e+00  -5.898746999999993e-01  9.37605090e-01   2.60793243e+00   1.40847037e+00
C     4.730892049447981e+00   1.070565475427082e+00  -2.382890999999994e-01 -1.18935278e+00  -2.88346167e+00  -3.75792500e-01
C     8.957993029846156e-01   8.843727795781691e-01  -4.001421000000001e-01  3.00863935e+00   1.87526647e+00  -1.09296605e+00
C     2.326830349152086e+00   5.303136957725733e-01  -6.796749000000020e-01 -1.07435795e+00  -3.12709841e+00   2.00335474e+00
