32
Lattice="9.944 0 0 4.972 8.61175661523246 0 0 0 30 " PBC="1 1 1" Properties=species:S:1:pos:R:3:force:R:3 Energy="-257.84050386"
C    -4.398012363251378e-03   1.031702242196228e-02   2.992102920320645e+00  4.47755000e-01  -2.22323850e-01   2.69525500e-02
C     1.247385893205039e+00   7.232859605996367e-01   2.988105518918058e+00 -3.78135000e-03  -4.41044300e-02   1.54540360e-01
C     2.493304308599825e+00   7.932444040395822e-03   3.004831322326143e+00 -3.15470130e-01  -3.92643540e-01  -1.24320000e-01
C     3.731732397729260e+00   7.081558000071705e-01   3.000707080181334e+00  1.14803340e-01   7.48543640e-01  -2.88142300e-02
C     4.986905628674987e+00  -1.271978106809603e-03   2.987727624686575e+00 -1.19045848e+00  -1.16736940e-01   2.87407810e-01
C     6.205817086215872e+00   7.082606994040038e-01   3.011305382557138e+00  9.02817960e-01   5.53967370e-01  -1.51227050e-01
C     7.454602476214420e+00   2.502561878900629e-03   3.000592771335875e+00  3.03503410e-01  -4.23244870e-01   6.32980100e-02
C     8.708935911151739e+00   7.203526197546256e-01   3.006472615010233e+00 -7.63118780e-01   1.04542730e-01  -1.27289230e-01
C     1.249123293803478e+00   2.151845579326181e+00   2.996509020908576e+00 -2.78755270e-01   2.28229620e-01  -1.40272870e-01
C     2.488316449093202e+00   2.880860142594443e+00   2.988825498929198e+00 -3.36780900e-01  -3.49813220e-01   1.07085260e-01
C     3.715298136014495e+00   2.159620515450075e+00   3.003673130591455e+00  6.73843550e-01  -6.59407470e-01  -4.83543900e-02
C     4.964543674008362e+00   2.860595974280316e+00   3.009698466224015e+00  2.07101420e-01   7.09906480e-01  -7.32319000e-02
C     6.215546005641485e+00   2.148922029187018e+00   3.011916191831600e+00 -2.73523790e-01  -1.33419880e-01  -7.24873800e-02
C     7.461846007175660e+00   2.857655506281081e+00   2.991555866181518e+00 -4.10048740e-01   7.26153080e-01   1.28043310e-01
C     8.698570341036923e+00   2.158860434730552e+00   2.997008300155780e+00  3.12933590e-01  -5.45564200e-01  -1.48461900e-02
C     9.942913026435765e+00   2.864430992085747e+00   2.990211852580093e+00  1.43443060e-01   2.97711300e-01   7.84752900e-02
C     2.486531864510579e+00   4.304256212253516e+00   2.989098421380973e+00 -2.79124440e-01   7.25522000e-01   1.46083500e-02
C     3.728316646448081e+00   5.030416387080590e+00   2.996011305657192e+00 -5.26314500e-02  -7.44869700e-02   4.35740000e-02
C     4.964933066537398e+00   4.312891903167289e+00   2.997880538967035e+00  4.94243970e-01  -3.37449980e-01   9.21579000e-02
C     6.221578916215728e+00   5.032642607031033e+00   3.004890642331725e+00 -3.72877210e-01  -2.73887780e-01  -1.65053630e-01
C     7.465222121013601e+00   4.307180415202660e+00   2.990788502672981e+00 -6.59045390e-01  -4.60551230e-01   9.51990800e-02
C     8.693916620623124e+00   5.011261165375835e+00   2.995871607031323e+00  2.82669300e-01   7.84999890e-01  -8.21572400e-02
C     9.934517503273913e+00   4.301261573948378e+00   2.996172322382579e+00  4.24501200e-01   6.58948200e-02  -7.54730700e-02
C     1.117741042829379e+01   5.032121481261047e+00   2.990809031989038e+00  1.59436970e-01  -4.91332630e-01   8.44524400e-02
C     3.727698078646735e+00   6.470136880732113e+00   3.008156120553533e+00  5.16533900e-02  -4.93772800e-01  -2.27872160e-01
C     4.964466548107421e+00   7.187291616269015e+00   2.991233023217235e+00  2.76354690e-01  -6.01272900e-02   1.13711530e-01
C     6.213540167879924e+00   6.468793273574788e+00   2.994184714814009e+00 -2.38263240e-01  -1.47238030e-01   7.41764600e-02
C     7.451463609489251e+00   7.180708166198770e+00   3.002307638466990e+00  2.03376020e-01   1.25152100e-01  -1.21866060e-01
C     8.689276768120664e+00   6.462112934695027e+00   2.988041945005135e+00  2.30940960e-01  -2.72398940e-01   2.17867790e-01
C     9.933753937555110e+00   7.181958938394890e+00   3.004805758695617e+00  2.31530670e-01  -3.06091310e-01  -1.96736680e-01
C     1.117889603365890e+01   6.464271829702927e+00   3.003043839137429e+00 -6.20835000e-03  -2.88237310e-01  -8.95407900e-02
C     1.242978556499489e+01   7.163792312358071e+00   2.993616423515614e+00 -2.80820980e-01   1.02220964e+00   1.57992710e-01
