32
Lattice="9.86 0 0 4.93 8.53901048131456 0 0 0 30 " PBC="1 1 1" Properties=species:S:1:pos:R:3:force:R:3 Energy="-257.47720697"
C     4.907155119500000e+00   8.390990405103706e+00  -2.944049999999976e-02  2.98927770e-01   8.57967510e-01   2.21491810e-01
C     1.212534880400000e+00   5.781292642629504e-01  -4.457969999999989e-02  5.28835400e-02   1.03261170e-01   2.03789780e-01
C     7.369732616099999e+00   8.394194754176432e+00  -3.214260000000024e-02 -4.78605660e-01  -1.07392909e+00   3.85663680e-01
C     3.658376456700000e+00   5.237223612588968e-01   5.337630000000000e-02  1.24071772e+00   2.27077266e+00  -9.00367660e-01
C     9.846407940699999e+00   8.387568823604370e+00   1.417140000000000e-02 -7.76647180e-01  -2.86962400e-02   4.90473350e-01
C     6.138088611999999e+00   5.596634833197408e-01   6.091800000000000e-03  6.17936220e-01  -3.73152350e-01   2.71075540e-01
C     1.230982403030000e+01   8.366483957366736e+00   3.476850000000000e-02 -5.03238990e-01   4.54363370e-01  -3.29389570e-01
C     8.590428569199998e+00   5.459935522225183e-01  -2.239319999999978e-02  9.71569630e-01   3.37738810e-01  -1.24279570e-01
C     1.238996162400000e+00   2.006965303485543e+00   1.509120000000000e-02 -1.31032981e+00  -4.79058440e-01  -2.67625290e-01
C     2.464620390000000e+00   2.706231361340707e+00   1.936350000000000e-02 -2.23637810e-01  -8.30581500e-01   2.25999810e-01
C     3.698063548300000e+00   1.987850130795329e+00   7.701899999999999e-03 -1.04994653e+00  -1.18576850e+00   4.45361160e-01
C     4.908658325799999e+00   2.689189716565352e+00   3.003720000000000e-02  5.58867020e-01   6.59836030e-01  -1.58269100e-02
C     6.141172228399999e+00   1.979299763431390e+00   2.415450000000000e-02  2.94360870e-01   7.44059900e-02  -3.12115190e-01
C     7.374178588700000e+00   2.693008618222323e+00  -6.756299999999271e-03  5.46352050e-01  -5.49401970e-01  -1.71728680e-01
C     8.629697399599999e+00   1.969603887811560e+00  -6.945419999999913e-02 -1.26984500e+00   7.29405300e-01   9.08461930e-01
C     9.833208555899999e+00   2.717942528823922e+00   2.764740000000000e-02  1.12997677e+00  -7.73116040e-01  -7.04103770e-01
C     2.422385080000000e+00   4.099555534559285e+00   8.792040000000001e-02  6.36853430e-01   1.47895249e+00  -1.32602940e-01
C     3.656708292600000e+00   4.811599367696721e+00   1.055913000000000e-01  5.90672940e-01   3.98754810e-01  -5.65034370e-01
C     4.903116759300000e+00   4.129704645811545e+00   3.799440000000000e-02  3.49491870e-01  -7.24664260e-01  -2.80306800e-02
C     6.149296375400000e+00   4.831193322704549e+00  -2.541330000000031e-02 -4.89359780e-01   4.28779500e-01   6.07508670e-01
C     7.377677212499999e+00   4.107908309220716e+00   7.782300000000001e-03  3.95221050e-01   6.98044270e-01  -1.03838480e-01
C     8.629992607999998e+00   4.839963057247719e+00   4.912050000000000e-02 -1.79345323e+00  -1.59741650e-01  -4.29129830e-01
C     9.841782614700000e+00   4.142116609884853e+00   1.542300000000000e-02 -6.45184000e-03  -4.97275720e-01   5.88198800e-01
C     1.106496397800000e+01   4.848989474445917e+00   7.299330000000000e-02  3.17398680e-01  -6.86154310e-01   1.17807600e-01
C     3.676571509100000e+00   6.229187907705162e+00   4.326090000000000e-02  1.51975960e+00   8.87689560e-01   5.20823460e-01
C     4.950191603800000e+00   7.000103863206855e+00   4.215960000000000e-02 -2.10982274e+00  -1.97794986e+00  -5.66145940e-01
C     6.156637441199999e+00   6.281742357775684e+00  -4.092299999999938e-03 -6.58193380e-01  -1.87933893e+00  -1.03490200e-02
C     7.370621642999999e+00   6.939575087419374e+00  -1.528109999999927e-02 -6.75503000e-02   2.36908700e+00   3.02480800e-02
C     8.572252152200001e+00   6.259563644295562e+00   4.050180000000000e-02  2.42191780e+00  -3.60547560e-01   4.78434300e-02
C     9.828549163599998e+00   6.983024817565596e+00   6.858900000000000e-02  2.37331800e-01  -1.05057216e+00  -1.47916630e-01
C     1.107284497740000e+01   6.259871731793680e+00   1.071798000000000e-01 -1.90833520e-01   1.66800020e-01  -3.93293800e-01
C     1.233265510680000e+01   6.940009381492388e+00   6.206460000000000e-02 -1.25232298e+00   7.14090090e-01   1.37031200e-01
