32
Lattice="9.964 0 0 4.982 8.62907712330815 0 0 0 30 " PBC="1 1 1" Properties=species:S:1:pos:R:3:force:R:3 Energy="-257.84796598"
C     2.910507806601766e-03  -3.508374806290826e-03   2.995682815773705e+00 -2.77426880e-01   2.74311290e-01   2.23422400e-02
C     1.243306781090073e+00   7.214382414144770e-01   2.997148044996803e+00  9.99931200e-02  -2.72980720e-01   2.62065900e-02
C     2.488309409147012e+00  -3.228737063256334e-03   3.001500461069541e+00  1.37728900e-01   2.87570550e-01  -5.06041200e-02
C     3.738037625885682e+00   7.206503893072277e-01   3.002018245972281e+00 -2.59008480e-01  -1.35479590e-01  -1.87937400e-02
C     4.979722516897493e+00   2.015767868278240e-03   3.004236515466753e+00  1.59798980e-01  -3.14571800e-02  -4.57199100e-02
C     6.227284262474390e+00   7.185276421749485e-01   3.001527049323282e+00 -2.61690900e-02   6.19767400e-02   1.73773000e-02
C     7.471595827780337e+00   2.127714607337736e-03   3.002401681975937e+00  6.12248500e-02  -2.19947700e-02  -4.44056400e-02
C     8.717369560791601e+00   7.229918761608475e-01   3.000357307746162e+00  1.57617250e-01  -2.51902330e-01  -2.85134400e-02
C     1.242214459029340e+00   2.154059457703312e+00   3.001166065786953e+00  2.09897790e-01   2.42390410e-01  -2.01570000e-04
C     2.491694205728723e+00   2.877598473522993e+00   3.001711667168616e+00 -1.38537000e-01  -4.44729800e-02  -5.83553900e-02
C     3.732912467157791e+00   2.156816802576878e+00   2.995527917301132e+00  2.56447030e-01   1.14512160e-01   8.84121600e-02
C     4.984252335125124e+00   2.877661819253351e+00   3.000447521346267e+00 -1.08211760e-01  -9.91177200e-02  -4.64130900e-02
C     6.231105006242684e+00   2.156526184226359e+00   2.999662904257052e+00 -1.76349480e-01   7.06328200e-02   4.29503000e-03
C     7.471196445975488e+00   2.879106711328117e+00   2.997267255958095e+00  2.08225710e-01  -8.22380900e-02   2.87428200e-02
C     8.723031821797433e+00   2.157361477431033e+00   2.998251673768081e+00 -2.87346940e-01   1.03185590e-01   2.08296700e-02
C     9.965040371990153e+00   2.873295439061131e+00   3.001919593003913e+00 -5.90877000e-03   2.25692340e-01  -2.34317000e-02
C     2.494427881859265e+00   4.316945719523713e+00   2.997881245402428e+00 -1.96909370e-01  -1.31843650e-01   3.16466000e-02
C     3.738108324196528e+00   5.032411838970975e+00   2.996883681537177e+00 -4.30972100e-02   1.40084110e-01   2.57280000e-02
C     4.982393796293798e+00   4.315039931620907e+00   2.998693523646232e+00  7.07417700e-02  -2.05321800e-02   3.19835700e-02
C     6.227112715313125e+00   5.037283765486768e+00   3.004270620600773e+00 -2.10179000e-02  -7.17516300e-02  -7.96056900e-02
C     7.470431582436071e+00   4.316353332990204e+00   3.000224396368905e+00  1.09952660e-01   1.32811600e-02   6.18995000e-03
C     8.720833785194078e+00   5.033885194323067e+00   2.999615224202905e+00 -1.56368390e-01   2.60872200e-02   2.57347800e-02
C     9.964149169827810e+00   4.317149734305977e+00   3.001771874019835e+00  2.33298300e-02  -2.43558120e-01  -6.71718000e-03
C     1.120733447415661e+01   5.033345413279947e+00   3.001603744989370e+00  1.69118050e-01   4.26625500e-02   3.62319000e-03
C     3.736115917806354e+00   6.471989111585670e+00   3.000528055834423e+00 -2.83548400e-02   2.54309700e-02  -6.19622000e-02
C     4.981716073122798e+00   7.190957666047884e+00   2.996210905879899e+00 -5.19844900e-02  -1.70961400e-02   1.57028100e-02
C     6.225056566232051e+00   6.474699693109919e+00   2.996768788274886e+00  7.28896700e-02  -9.49601000e-02   3.05980200e-02
C     7.469630005696835e+00   7.192768347483014e+00   2.996651199186676e+00  1.54805200e-01  -1.47484430e-01   4.85366000e-02
C     8.719207319092574e+00   6.470662953288367e+00   3.001729164984430e+00 -1.66658400e-02   1.48508550e-01  -4.90053900e-02
C     9.966758971938242e+00   7.192834214346439e+00   2.999600705106850e+00 -2.27761850e-01  -8.53180400e-02   7.69591900e-02
C     1.120804193498589e+01   6.470721687443648e+00   3.004522679962732e+00  1.08534510e-01   1.16664080e-01  -8.03337700e-02
C     1.245446183225153e+01   7.193513147284206e+00   2.997240430931237e+00  2.08130000e-02  -1.40802870e-01   8.91543100e-02
