32
Lattice="9.86 0 0 4.93 8.53901048131456 0 0 0 30 " PBC="1 1 1" Properties=species:S:1:pos:R:3:force:R:3 Energy="-257.01909511"
C     9.827899882600001e+00   3.770910710270704e-01   3.444158100000000e+00 -3.38300470e-01  -1.14082356e+00  -4.09769050e-01
C     1.195427928300000e+00   1.071800115159374e+00   3.468675600000000e+00  6.20692200e-02   6.49186690e-01   2.20729420e-01
C     2.424206813600000e+00   3.717864669366848e-01   3.299001600000000e+00 -1.31037240e-01  -1.06386368e+00  -1.19729910e-01
C     3.672225566200000e+00   1.036198333375005e+00   3.352032000000000e+00  2.47189890e-01   2.69686140e-01   4.26936870e-01
C     4.916567130400000e+00   3.497727271390352e-01   3.336391200000000e+00 -2.35272000e-03  -1.12468867e+00  -3.28202810e-01
C     6.142637276499999e+00   1.072621226407130e+00   3.360184200000000e+00 -1.11670005e+00   4.17645860e-01   1.45022780e-01
C     7.352708142899999e+00   3.718198544676616e-01   3.466984200000000e+00  8.35713570e-01  -7.39535200e-01  -7.26229480e-01
C     8.593896429799999e+00   1.068125351999306e+00   3.437502600000000e+00  1.50332700e-02   7.83105240e-01   8.71763220e-01
C     1.103458699420000e+01   2.497179648329766e+00   3.694029900000000e+00  9.03560220e-01  -1.00461909e+00  -6.51848310e-01
C     2.432757109800000e+00   3.159117934212240e+00   3.670080300000000e+00  2.34602470e-01   8.71731920e-01   2.94658180e-01
C     3.683526506600000e+00   2.431520293485483e+00   3.540417900000000e+00 -9.59727380e-01   1.62675187e+00  -3.52963980e-01
C     4.884049491300000e+00   3.185924193641790e+00   3.449054400000000e+00  6.16719130e-01   8.23569880e-01  -5.60089880e-01
C     6.114553137100000e+00   2.500581675495103e+00   3.304350600000000e+00  8.49097930e-01  -6.16668580e-01   8.80266450e-01
C     7.381270640199999e+00   3.188131442460765e+00   3.367695600000000e+00 -1.39217814e+00   4.43992760e-01  -5.79028060e-01
C     8.587362109199999e+00   2.502379393371458e+00   3.512611200000000e+00  7.63964050e-01  -9.10295590e-01  -1.15921970e-01
C     9.815615456500000e+00   3.215640974793447e+00   3.686503800000000e+00 -3.71829050e-01   1.06518870e-01  -5.32107180e-01
C     1.228835442260000e+01   4.594538233635750e+00   3.723534900000000e+00  1.25171938e+00   9.85605460e-01  -5.18486460e-01
C     3.697521692000000e+00   5.349918569640445e+00   3.531171600000000e+00 -1.52892737e+00  -1.73132087e+00   5.44436100e-01
C     4.918837050300001e+00   4.646312218148402e+00   3.397287900000000e+00 -8.96267000e-01  -1.57561193e+00   1.28806300e-01
C     6.136360400499999e+00   5.326023258883527e+00   3.208040400000000e+00  2.69436680e-01  -1.48485640e-01  -1.27768760e-01
C     7.377608291100000e+00   4.591251995452522e+00   3.221045400000000e+00 -3.66923470e-01   1.26383548e+00   8.46870950e-01
C     8.572477009499998e+00   5.350338432785747e+00   3.358588500000000e+00  1.15721788e+00  -1.21398578e+00   2.24094410e-01
C     9.820285300399998e+00   4.638061911612729e+00   3.631208100000000e+00 -6.56254810e-01   4.47741430e-01  -8.58192000e-02
C     1.105780192050000e+01   5.352931047147684e+00   3.731630700000000e+00  9.91406200e-02  -2.13412468e+00  -4.72322290e-01
C     1.354264812850000e+01   6.743302772102697e+00   3.506215200000000e+00 -1.28424367e+00   1.98868528e+00  -3.91029410e-01
C     4.880886797700000e+00   7.480629761370365e+00   3.354207300000000e+00  1.14971420e+00  -4.11382150e-01  -2.43847250e-01
C     6.114132657400000e+00   6.745877710712941e+00   3.149656200000000e+00  2.63323810e-01   1.05437935e+00   7.15757610e-01
C     7.357907518099999e+00   7.477130645655871e+00   3.133572900000000e+00 -6.03179810e-01   2.16375830e-01   6.80535880e-01
C     8.579167857600000e+00   6.760065105845252e+00   3.277488900000000e+00  5.61664510e-01   2.95182080e-01  -4.94725260e-01
C     9.847538636199999e+00   7.437516212066741e+00   3.336405000000000e+00 -1.18198918e+00   1.11130308e+00   7.83944360e-01
C     1.104099086700000e+01   6.732472488940599e+00   3.578597400000000e+00  1.53470917e+00   2.01709481e+00  -6.67759050e-01
C     1.228666081970000e+01   7.493266301419299e+00   3.510288300000000e+00  1.50343500e-02  -1.55698662e+00   6.13825790e-01
