32
Lattice="9.86 0 0 4.93 8.53901048131456 0 0 0 30 " PBC="1 1 1" Properties=species:S:1:pos:R:3:force:R:3 Energy="-252.32624874"
C     5.083322704200000e+00   7.985537950058468e+00  -1.289529300000002e+00  1.91612791e+00  -6.10296951e+00   2.74031238e+00
C     6.393079205899999e+00   8.528418776790714e+00  -9.776724000000030e-01 -1.92046139e+00  -4.96839520e-01  -2.71260374e+00
C     7.590751861799999e+00   7.838076753398092e+00  -1.125974100000001e+00  3.89244762e+00  -8.73785110e-01   1.86498891e+00
C     3.998675770600000e+00   6.584482215190880e-02  -9.286065000000008e-01 -4.97631811e+00   4.83882320e-01  -2.00719154e+00
C     1.013246645790000e+01   7.874734469218416e+00  -9.988734000000008e-01 -3.31635143e+00  -1.43534300e-02  -1.04187978e+00
C     6.322315070499999e+00   6.900468298003280e-02  -1.181366400000002e+00  2.69504389e+00   1.00140804e+00   5.38934400e-01
C     1.250440605240000e+01   7.918252426058374e+00  -1.109253299999999e+00 -1.89279126e+00  -4.34981443e+00   1.77719510e-01
C     8.764396535800000e+00   1.037096978837920e-02  -1.165531199999997e+00  9.03205860e-01   2.94809772e+00  -1.05654341e+00
C     1.395074588700000e+00   1.361420295312677e+00  -1.039188300000003e+00 -1.93269347e+00   2.54328062e+00   9.41477890e-01
C     2.498500976900000e+00   2.156279380029975e+00  -1.020168300000002e+00  6.42307363e+00   1.32903864e+00  -1.68594990e+00
C     3.830354034400000e+00   1.536984997874726e+00  -1.088579100000000e+00  1.09324631e+00  -2.23916875e+00   1.81833465e+00
C     5.098709431400000e+00   2.251855243481043e+00  -1.051209000000000e+00 -2.89741505e+00   7.61244780e-01  -1.24825498e+00
C     6.252981719699999e+00   1.504058658853951e+00  -1.222228500000000e+00  2.06842358e+00  -7.76808100e-02   1.77441055e+00
C     7.511693297200001e+00   2.186471869455474e+00  -1.007694300000001e+00  5.12862070e-01  -4.41392485e+00  -1.73264145e+00
C     8.712828932999999e+00   1.413871935697021e+00  -1.163616899999997e+00  1.45300788e+00   1.85433035e+00   1.56436734e+00
C     9.992783042399999e+00   2.054441518633504e+00  -1.007955599999999e+00 -4.36517950e-01   2.19081535e+00   2.14319320e-01
C     2.655650692200000e+00   3.598834791220469e+00  -1.224618599999999e+00 -2.04616534e+00  -4.63999590e-01   2.82896918e+00
C     3.877219008800000e+00   4.378140239128656e+00  -1.070258100000000e+00 -3.19095390e-01  -2.47489817e+00   1.90330200e-02
C     5.091554177299999e+00   3.730955911723841e+00  -1.051666500000003e+00  1.45527242e+00  -4.49757032e+00  -4.66551480e-01
C     6.360435309500000e+00   4.293356318682632e+00  -1.076728200000002e+00  5.20549090e-01   2.48724051e+00   1.24542991e+00
C     7.591924955300000e+00   3.517574578839121e+00  -9.569766000000008e-01 -3.41284499e+00   3.71207168e+00  -1.61764530e-01
C     8.736386099899999e+00   4.237830378355174e+00  -9.013631999999987e-01  6.41607851e+00   1.89038765e+00  -8.49898770e-01
C     1.003666970520000e+01   3.537459116373582e+00  -8.269857000000016e-01 -1.37085941e+00  -1.87180805e+00  -1.49761890e+00
C     1.126746998910000e+01   4.221751250841124e+00  -9.714923999999989e-01 -2.56999700e-02   3.38139693e+00  -8.78117080e-01
C     3.978285734300000e+00   5.731439423134224e+00  -8.914473000000029e-01 -4.70501568e+00   2.46869377e+00  -1.37851842e+00
C     5.091299690700000e+00   6.493308894763090e+00  -1.111953300000000e+00  4.57958636e+00   1.04150075e+00   3.27456770e-01
C     6.438504866800001e+00   5.753382203754786e+00  -1.023864000000000e+00 -3.44004175e+00  -1.72548101e+00  -1.29178270e+00
C     7.669173076000000e+00   6.349356633679260e+00  -1.128617700000000e+00 -1.87840740e-01   4.25182407e+00  -4.39182350e-01
C     8.910473964099999e+00   5.685883119102587e+00  -1.188468300000000e+00 -2.65651218e+00  -9.45268160e-01   1.63146573e+00
C     1.008141911800000e+01   6.476296197233262e+00  -1.159909800000001e+00  1.04661579e+00  -2.32037553e+00   1.11422788e+00
C     1.128308783470000e+01   5.734546769047896e+00  -1.035642299999999e+00  1.16679962e+00  -1.46647078e+00   4.05910110e-01
C     1.253941304570000e+01   6.419021723729815e+00  -9.418479000000026e-01 -6.05716370e-01   1.98919484e+00  -7.58858540e-01
