32
Lattice="9.86 0 0 4.93 8.53901048131456 0 0 0 30 " PBC="1 1 1" Properties=species:S:1:pos:R:3:force:R:3 Energy="-254.4307615"
C     4.948294884900000e+00   8.450451292240558e+00  -1.675572000000010e-01  3.14047400e-02   1.41063940e+00  -5.93743710e-01
C     1.253183913600000e+00   6.737955558350016e-01  -1.212833999999994e-01 -6.50906150e-01  -1.61125862e+00  -7.26110470e-01
C     7.391497087099999e+00   8.501090698430730e+00  -1.867002000000006e-01  2.38388851e+00  -7.16552210e-01  -7.84003720e-01
C     3.748236158299999e+00   6.554996158102392e-01  -3.999749999999977e-01 -7.89737760e-01   1.64111780e-01   1.08556256e+00
C     9.939821876499998e+00   8.470796338610205e+00  -4.174812000000010e-01 -2.49077013e+00   4.65995810e-01   4.23908420e-01
C     6.254413145200000e+00   6.754203587491360e-01  -2.771891999999987e-01 -2.82812148e+00  -4.37385918e+00  -1.85298606e+00
C     7.437573310800000e+00   3.705947626340960e-02  -4.974336000000008e-01  1.25336484e+00  -5.66584300e+00   8.91787170e-01
C     8.674032495200001e+00   6.516154761132016e-01  -2.903327999999981e-01 -7.19220140e-01  -7.80228300e-02   3.17838160e-01
C     1.205927546500000e+00   2.060978558106468e+00  -3.455352000000005e-01  1.83160398e+00   7.12341030e-01  -3.12048200e-01
C     2.454239929900000e+00   2.807599747940988e+00  -5.779128000000000e-01  1.36467878e+00  -4.93090596e+00   1.00279677e+00
C     3.723705661500000e+00   2.090150721169711e+00  -4.732085999999995e-01  8.37497050e-01  -9.92518890e-01   2.87984100e-01
C     5.033469607500000e+00   2.734196364492393e+00  -3.814820999999995e-01 -3.88975268e+00   1.57892586e+00  -1.07302690e+00
C     6.203325823000000e+00   1.997788428922686e+00  -2.602125000000015e-01 -8.27621120e-01   3.84753784e+00   5.21792740e-01
C     7.388900751899999e+00   2.690509079074617e+00  -1.989264000000013e-01  7.55670750e-01   4.02289265e+00  -2.93758100e-01
C     8.577588729299999e+00   2.061418658706607e+00  -1.961697000000022e-01  4.78063814e+00  -1.38573991e+00  -4.83841790e-01
C     9.864374980599999e+00   2.731612203750831e+00  -3.550089000000014e-01 -2.17023227e+00   2.50558193e+00   1.97307140e-01
C     2.540629946800000e+00   4.119898019225788e+00  -7.536008999999986e-01 -2.77570077e+00   4.54352312e+00  -1.51049590e-01
C     3.759880719700000e+00   4.877581411747044e+00  -6.902030999999980e-01  7.36288100e-02   7.50799100e-02   5.12948110e-01
C     4.992424793900000e+00   4.183492726726112e+00  -5.215404000000028e-01  6.23954290e-01  -9.43023410e-01   1.17567945e+00
C     6.204437094299999e+00   4.888079783571785e+00  -2.690279999999987e-01  6.74376860e-01   4.47791850e-01  -1.18916774e+00
C     7.474944781400000e+00   4.144486783023788e+00  -2.466141000000022e-01 -3.44370501e+00   4.32627380e-01   3.43830280e-01
C     8.630130352200000e+00   4.911657613919056e+00  -3.370013999999983e-01  1.27288646e+00  -1.65125986e+00  -1.39521100e-01
C     9.867522736300000e+00   4.203976105065537e+00  -5.191290000000031e-01 -3.44127840e-01  -2.45615565e+00   4.23795060e-01
C     1.107579361040000e+01   4.803806154392045e+00  -7.504379999999991e-01  2.69017962e+00   4.54085039e+00  -1.52582490e-01
C     3.729877380600000e+00   6.304094925509180e+00  -5.285808000000003e-01 -1.89974039e+00   3.48447310e-01  -9.42504560e-01
C     4.902135985099999e+00   7.056733982979480e+00  -3.270063000000007e-01  2.19777786e+00  -1.38137246e+00   1.04135640e-01
C     6.180278960399999e+00   6.334769271296066e+00  -3.130337999999995e-01 -4.40712910e-01  -2.31294750e-01   1.03444533e+00
C     7.410063467100000e+00   7.052510246835653e+00  -2.089044000000015e-01 -1.10707735e+00   1.67979760e-01   1.03548660e-01
C     8.614607359799999e+00   6.293808150364135e+00  -2.765847000000008e-01 -8.49291300e-02   2.57699465e+00  -1.06261148e+00
C     9.785171572599999e+00   7.057007487485155e+00  -5.161349999999985e-01  4.24644350e+00  -4.85666500e-01  -1.94626480e-01
C     1.109656715140000e+01   6.385525149589185e+00  -7.812947999999977e-01 -2.22601781e+00  -3.58419771e+00   1.44555074e+00
C     1.231462442060000e+01   7.022154491529777e+00  -6.342836999999975e-01  1.67037875e+00   2.64635028e+00   7.86720600e-02
