32
Lattice="9.86 0 0 4.93 8.53901048131456 0 0 0 30 " PBC="1 1 1" Properties=species:S:1:pos:R:3:force:R:3 Energy="-256.0411835"
C     5.040622889600000e+00   6.981918161807389e+00   7.158840000000001e-02 -2.68406737e+00  -1.19347235e+00  -6.17053000e-02
C     6.246967859200000e+00   7.704056813134282e+00   4.638090000000000e-02 -4.20446430e-01  -2.23171049e+00   6.01884300e-01
C     7.425630040700000e+00   6.947565124915615e+00   1.686606000000000e-01  2.09104963e+00   4.93590270e-01   4.25505200e-01
C     8.698032967700000e+00   7.639925514215394e+00   2.523054000000000e-01 -1.22140625e+00  -5.67739100e-02  -1.83203081e+00
C     9.902119997300000e+00   6.919713775993419e+00   1.489650000000000e-02 -2.08179830e-01   2.77431739e+00   9.55406040e-01
C     1.111611287590000e+01   7.634184566689481e+00  -2.008049999999884e-02  1.70959721e+00   6.25218400e-01   5.80509600e-01
C     1.236258770040000e+01   6.914711367483920e+00  -1.911869999999993e-02  1.65509232e+00   2.73218490e-01  -6.91440290e-01
C     1.363141228550000e+01   7.644754666202254e+00   1.909260000000000e-02 -9.54690030e-01   1.77996675e+00  -2.22575760e-01
C     1.317321438800000e+00   5.374338773371568e-01  -3.405150000000035e-02 -2.74909330e-01   2.01051700e+00   1.05207430e-01
C     2.555810600000000e+00   1.222457719612730e+00  -4.960680000000295e-02  7.27378600e-02   4.08975180e-01   7.38220640e-01
C     3.778139171899999e+00   5.227232970327368e-01   1.533990000000000e-01 -8.89175060e-01  -7.22595270e-01  -4.19664220e-01
C     4.985099750600000e+00   1.217329702259070e+00   1.351623000000000e-01  6.83010200e-02   2.52028516e+00   7.67640720e-01
C     6.194795690500000e+00   5.346485375086856e-01   1.124628000000000e-01  1.56552004e+00  -2.77989540e-01  -8.99050860e-01
C     7.441549996699999e+00   1.298068522660510e+00   1.355190000000000e-02 -1.00963800e-02  -2.33477124e+00   7.91468120e-01
C     8.671822918500000e+00   5.997236532559272e-01  -1.086900000000668e-03  1.79474725e+00  -2.12914988e+00  -1.22166000e-02
C     9.968680568200000e+00   1.289296482584510e+00  -5.372399999998834e-03 -2.44046853e+00   4.27896230e-01  -1.15553744e+00
C     2.543815367700000e+00   2.628729850592446e+00  -9.082049999999953e-02 -1.03951611e+00   1.63406733e+00   3.59421370e-01
C     3.754812926200000e+00   3.390441777477955e+00   3.402000000000000e-02  1.59317880e-01  -2.08219556e+00   3.07466100e-01
C     4.967197441600000e+00   2.697075492743632e+00   2.311452000000000e-01  1.53554075e+00  -1.56349060e+00  -9.23503580e-01
C     6.228844834099999e+00   3.391636299654003e+00   2.789190000000000e-01  1.51533650e-01   2.49296160e-01   1.69734900e-01
C     7.501004169800000e+00   2.670080948132998e+00   1.463847000000000e-01 -2.81013533e+00   1.96595588e+00   9.72139800e-02
C     8.681225562399998e+00   3.420298256841066e+00   6.317430000000000e-02  5.46882850e-01   3.52038760e-01   7.91940300e-02
C     9.914144957500000e+00   2.764787198756783e+00  -1.270170000000022e-01 -3.16200200e-02  -3.74218931e+00   1.34083217e+00
C     1.113698442530000e+01   3.371751164388807e+00  -7.439369999999812e-02  2.31199955e+00   2.31052017e+00  -4.02229300e-01
C     3.776147994200000e+00   4.764245260398623e+00  -1.608269999999834e-02  2.80849850e-01   2.32955138e+00   3.48561920e-01
C     4.968987426000000e+00   5.535235761461806e+00   1.566936000000000e-01  2.01880323e+00  -1.15985390e-01   1.94853860e-01
C     6.239881871600000e+00   4.842315213074539e+00   3.553368000000000e-01 -2.24442006e+00  -1.72746127e+00  -1.42002200e+00
C     7.443005135499999e+00   5.521877760417418e+00   2.412069000000000e-01  5.31769240e-01   1.21504990e+00   3.69296230e-01
C     8.674010704600001e+00   4.830855177889540e+00   1.757469000000000e-01  8.23490050e-01   3.82940980e-01  -9.80631990e-01
C     9.912302074199999e+00   5.572973576717748e+00  -2.853479999999919e-02  1.61016190e-01  -4.01763393e+00   1.03712464e+00
C     1.117145227380000e+01   4.848018930514760e+00  -1.765619999999757e-02 -1.00139599e+00  -2.34052193e+00  -1.30983543e+00
C     1.242083298820000e+01   5.459996832320431e+00  -1.249542000000012e-01 -1.24772183e+00   2.78253524e+00   1.06090233e+00
