32
Lattice="9.86 0 0 4.93 8.53901048131456 0 0 0 30 " PBC="1 1 1" Properties=species:S:1:pos:R:3:force:R:3 Energy="-257.61427622"
C     9.810834588999999e+00   3.464327785798881e-02  -1.716522000000005e-01  1.76624114e+00   7.42088500e-02   1.97832100e-02
C     1.218314418000000e+00   7.361050568679808e-01  -2.000969999999995e-01 -9.46855000e-01   8.64703800e-01   4.35291270e-01
C     2.446326096700000e+00   4.008612852804560e-02  -1.209150000000001e-01 -1.10064565e+00  -1.27324644e+00  -2.12598500e-01
C     3.648017491400000e+00   7.388081660255297e-01  -1.516047000000000e-01  1.18624198e+00   3.43707020e-01   1.02103590e-01
C     4.877574133499999e+00   2.553172672530480e-02  -1.055070000000029e-01  9.63068610e-01  -7.36864710e-01  -9.70190900e-02
C     6.119598449799999e+00   7.191967914363232e-01  -1.290803999999994e-01  8.69452300e-02   2.12311910e-01   1.50302030e-01
C     7.367130266299999e+00   1.987394916146640e-02  -1.394225999999996e-01 -5.87794980e-01   3.46978850e-01  -1.85819610e-01
C     8.591858367799999e+00   7.462388129452256e-01  -1.881875999999991e-01  1.06525200e-02  -8.50285630e-01   1.40673000e-01
C     1.108209612240000e+01   2.178384401849656e+00  -2.118609000000014e-01 -2.09154850e-01  -8.01185040e-01  -7.50994530e-01
C     2.461956365900000e+00   2.896077217370137e+00  -2.850491999999996e-01 -1.10419291e+00  -1.14075050e+00   5.42186500e-01
C     3.671033590800000e+00   2.155444179414927e+00  -2.276168999999975e-01  5.96576490e-01   7.26695300e-01   6.57145900e-02
C     4.919660656100000e+00   2.869016922378807e+00  -1.932054000000001e-01 -7.61018140e-01  -9.54091300e-02   3.00211100e-02
C     6.124580214800000e+00   2.134514040047189e+00  -1.235973000000001e-01  1.30962321e+00   1.11733593e+00  -2.81348730e-01
C     7.392000785199999e+00   2.871300339171264e+00  -1.298642999999977e-01 -1.20008035e+00  -1.86549870e-01  -2.25452130e-01
C     8.620365353300000e+00   2.151450569603535e+00  -2.053238999999998e-01 -1.26334173e+00   3.92776380e-01   3.08247690e-01
C     9.821743692999998e+00   2.856936186522018e+00  -2.388875999999982e-01  1.46847001e+00   8.12322620e-01   3.12076650e-01
C     1.228012694280000e+01   4.294459644226752e+00  -2.702892000000006e-01  9.91818600e-01   9.76232910e-01  -2.66790610e-01
C     3.671264512000000e+00   5.002538644018116e+00  -2.229576000000009e-01 -4.36126230e-01   6.61246400e-01  -1.72406320e-01
C     4.907701314200000e+00   4.307892532393049e+00  -2.033243999999996e-01 -8.04068270e-01  -1.19199947e+00   1.74810090e-01
C     6.107642953299999e+00   5.008085329055609e+00  -1.290402000000022e-01  1.57514891e+00  -9.80417600e-02   1.22001540e-01
C     7.359687839699999e+00   4.301539935546454e+00  -1.120890000000010e-01  4.65897880e-01   4.96696000e-02   4.42009000e-02
C     8.606286850899998e+00   5.040693589936003e+00  -1.004526000000006e-01 -5.37764720e-01  -1.91960272e+00  -3.03879940e-01
C     9.826886274600000e+00   4.283805008510226e+00  -2.003325000000018e-01 -4.35842540e-01   8.64178150e-01  -1.76563550e-01
C     1.104958188500000e+01   5.014103025911179e+00  -2.786763000000008e-01  3.98173310e-01  -1.13586936e+00   6.76693910e-01
C     1.354270566160000e+01   6.435510809137010e+00  -1.954370999999995e-01 -6.92656400e-02   6.78045500e-02   2.90751610e-01
C     4.938862907500000e+00   7.155796751360057e+00  -1.206777000000017e-01 -2.06667358e+00  -4.64984690e-01  -4.18543850e-01
C     6.135036202500000e+00   6.417963398770924e+00  -9.040800000000004e-02  9.04877380e-01   1.00744105e+00  -6.51114800e-02
C     7.379535033699999e+00   7.142263956771143e+00  -7.280820000000077e-02 -4.62638330e-01   2.54850970e-01  -6.65537000e-03
C     8.608830188599999e+00   6.444681364832110e+00  -7.270679999999885e-02  2.99155000e-01  -1.29110160e-01  -5.30929500e-02
C     9.858025091300000e+00   7.123233918015415e+00  -9.635370000000165e-02 -1.13815041e+00   1.24353561e+00  -1.76966890e-01
C     1.107417129530000e+01   6.416194798920306e+00  -1.860473999999996e-01 -2.82432350e-01   6.47872150e-01   1.83700600e-02
C     1.228642334160000e+01   7.148128122218282e+00  -1.769990999999997e-01  1.38315541e+00  -6.39972570e-01  -3.99842000e-02
