26
Lattice="8.88768389401873 1.33226762955019e-15 0 4.44384194700937 7.69696003302603 0 0 0 30 " PBC="1 1 1" Properties=species:S:1:pos:R:3:force:R:3 Energy="-208.57603157"
C     4.121852715023459e-01   5.186367146806605e-01   3.845427900000000e+00 -4.73349880e-01   8.01140880e-01  -1.22220799e+00
C     7.240720124901735e+00   7.662439395174251e+00   3.825299700000000e+00 -1.54758700e-01  -1.00680490e+00  -7.75514670e-01
C     4.164386945044352e+00   3.285493570565680e-01   3.808632000000000e+00  5.51031460e-01   1.17468779e+00   6.56887240e-01
C     9.683396100241453e+00   7.102576608028905e+00   3.851133300000000e+00 -1.56083120e+00  -2.65160399e+00   4.50866510e-01
C     1.103655103870615e+01   7.460306987829610e+00   3.880680900000000e+00 -3.02629680e-01   9.54559510e-01   1.85958400e-02
C     1.202800310513745e+01   6.477961220391178e+00   3.899363399999999e+00  6.63121470e-01  -1.73253332e+00  -1.26226346e+00
C     4.525051250146208e+00   6.855481023216215e+00   3.835160700000000e+00 -5.55813250e-01  -9.10473030e-01   3.64259550e-01
C     5.560192104332584e+00   5.877413611010458e+00   3.796183500000000e+00 -3.13630960e-01  -5.54316840e-01  -1.26718400e-01
C     6.932305450203234e+00   6.271090641421670e+00   3.793781099999999e+00 -7.34669690e-01   6.26661620e-01   5.79680260e-01
C     7.956485568245673e+00   5.313660472387550e+00   3.892449600000000e+00 -1.00197343e+00  -1.62935092e+00  -6.40027650e-01
C     9.309764401014956e+00   5.657774929895185e+00   3.922850400000000e+00  2.44799470e-01   2.66034257e+00  -2.39589400e-01
C     1.029644373676769e+01   4.688955261226272e+00   3.906628500000000e+00  1.20234155e+00  -1.89931985e+00  -1.21240002e+00
C     1.164979891476108e+01   5.063071853174045e+00   3.736002000000000e+00  1.17899922e+00   1.79232627e+00   1.91622312e+00
C     3.816890816849325e+00   4.118200967760075e+00   3.768378900000000e+00  2.52236210e-01  -1.38080235e+00  -5.88662580e-01
C     5.195338326139136e+00   4.492783071850463e+00   3.763739100000000e+00  2.69719920e-01   7.09855100e-02  -3.24657430e-01
C     6.243978105674591e+00   3.496260581611174e+00   3.701183400000000e+00 -1.21948563e+00   1.73753480e-01   1.31148289e+00
C     7.579891470692486e+00   3.913658257382041e+00   3.802944000000000e+00  1.77736271e+00   4.38887300e-02   4.20026000e-02
C     8.635378899598827e+00   2.921100086406204e+00   3.818528400000000e+00 -1.01797354e+00  -1.22358309e+00  -8.32027150e-01
C     9.995380287583494e+00   3.261870060841604e+00   3.807087300000000e+00 -2.04589900e-02   2.03712456e+00   1.18860785e+00
C     2.145428944840599e+00   2.299177865082974e+00   3.869934300000000e+00 -1.22621338e+00  -1.98908070e-01  -1.80060641e+00
C     3.498035291043354e+00   2.697182357331853e+00   3.748401000000000e+00 -1.08895530e-01   9.84024430e-01   1.23962962e+00
C     4.492643374023311e+00   1.713790573025343e+00   3.859340100000000e+00  2.20832094e+00   2.22782230e-01  -8.03406290e-01
C     5.916920714125815e+00   2.105758185583493e+00   3.846192300000000e+00 -1.73818761e+00   8.14347870e-01  -8.21732540e-01
C     6.943215301047816e+00   1.156477096011534e+00   3.832672800000000e+00 -5.93105150e-01  -1.23998483e+00  -1.62527380e-01
C     8.289213165424496e+00   1.506383362002544e+00   3.717743700000000e+00  3.76389110e-01   1.67218771e+00   1.55998905e+00
C     1.743256759644371e+00   9.239403880651894e-01   3.750441000000000e+00  2.29765454e+00   3.98868030e-01   1.48411685e+00
