2
Lattice="2.468 0 0 1.234 2.13735069653999 0 0 0 30 " PBC="1 1 1" Properties=species:S:1:pos:R:3:force:R:3 Energy="-16.13036925"
C     0.000000000000000e+00   0.000000000000000e+00   3.000000000000000e+00 -0.00000000e+00   0.00000000e+00   0.00000000e+00
C     1.234000000000000e+00   7.124502321799980e-01   3.000000000000000e+00  0.00000000e+00  -0.00000000e+00  -0.00000000e+00
