32
Lattice="9.86 0 0 4.93 8.53901048131456 0 0 0 30 " PBC="1 1 1" Properties=species:S:1:pos:R:3:force:R:3 Energy="-253.44643391"
C     9.811792438700000e+00   4.783340195634000e-02  -3.507455999999998e-01  5.04529885e+00  -5.06288581e+00   1.20400980e-01
C     1.238659936400000e+00   6.922579211740192e-01  -4.165907999999980e-01 -3.74609890e-01  -1.84866324e+00   1.33398277e+00
C     7.397614724099999e+00   8.407290009868349e+00  -3.796716000000018e-01  4.65079770e-01   7.32231300e+00   8.18479410e-01
C     3.781389225100000e+00   7.197580605951736e-01  -1.530666000000025e-01 -2.28974658e+00  -7.38623919e+00  -2.08805689e+00
C     9.909959239599999e+00   8.495390481984806e+00  -2.539970999999994e-01 -5.42483950e-01   3.25050410e-01   6.12379580e-01
C     6.192607411400000e+00   6.212703945704255e-01  -3.027101999999999e-01  8.97493610e-01   3.90327162e+00   5.44989170e-01
C     7.467364413399999e+00   9.188829177528000e-03  -1.570844999999998e-01 -2.32696681e+00  -4.40339230e-01  -7.32599210e-01
C     8.670922453999999e+00   7.284786958280832e-01  -2.434146000000013e-01 -2.62044630e+00  -2.46164213e+00  -4.65109330e-01
C     1.105315874790000e+01   2.074846935807245e+00  -1.512564000000012e-01  1.86108382e+00  -5.84660300e-02  -1.49881570e+00
C     2.495887189500000e+00   2.700207687177801e+00  -1.425995999999969e-01 -2.07757802e+00   4.12092451e+00   1.44021720e+00
C     3.723724937800000e+00   2.031452282278619e+00  -1.598039999999976e-01 -1.48088980e-01   4.35317497e+00   1.20311120e-01
C     4.935958250100001e+00   2.810693260657683e+00  -1.980426000000008e-01  1.24746283e+00  -2.78071666e+00  -7.15326050e-01
C     6.168581697300000e+00   2.144277288459706e+00  -3.536156999999989e-01 -2.61168590e-01  -4.34534764e+00   1.10903489e+00
C     7.411196183900000e+00   2.777110698681519e+00  -2.675426999999999e-01 -1.49485707e+00  -4.31722050e-01  -1.16858083e+00
C     8.615585521100000e+00   2.057358188443158e+00  -3.569028000000003e-01 -3.01537320e-01   3.46401498e+00   1.01420344e+00
C     9.783533481499999e+00   2.769569727746422e+00  -2.218058999999997e-01  3.80907225e+00  -2.96269420e-01   9.64208100e-02
C     2.509009617000000e+00   4.248210655664976e+00   3.710370000000000e-02 -1.67987921e+00  -3.86530143e+00  -1.01838299e+00
C     3.721125841800000e+00   4.882775094091294e+00  -1.112639999999843e-02  1.93343542e+00   2.74469160e+00  -1.80244089e+00
C     5.021350089899999e+00   4.150058743532302e+00  -2.118441000000004e-01 -4.34314727e+00   4.22113292e+00   1.11516416e+00
C     6.189969220500000e+00   4.909293247307249e+00  -2.880995999999989e-01  4.30609770e-01  -1.28925165e+00   4.49176450e-01
C     7.374010771500000e+00   4.154631383644341e+00  -2.826200999999990e-01  2.69176082e+00   1.91163018e+00  -1.03852540e-01
C     8.645526101300000e+00   4.816428775853895e+00  -2.639052000000000e-01 -5.21123070e-01   4.93736785e+00   1.14773900e-02
C     9.867205786600000e+00   4.158313148793003e+00  -1.755002999999995e-01 -1.91563580e-01   1.11938423e+00   2.68915570e-01
C     1.108379874720000e+01   4.913119492513232e+00  -3.045960000000036e-02  1.10621727e+00   6.01209150e-01   1.18695230e-01
C     3.709866165500000e+00   6.383790278829965e+00  -2.371020000000001e-01 -5.56039190e-01  -1.64650847e+00   2.19527576e+00
C     4.938852653100000e+00   7.045764257776244e+00  -2.494580999999982e-01  6.46497120e-01   1.82041641e+00  -6.52282630e-01
C     6.209673641699999e+00   6.290730264036618e+00  -2.321105999999986e-01 -2.30236829e+00   3.05838877e+00  -1.30719825e+00
C     7.375122437199999e+00   7.082479355746995e+00  -3.944387999999996e-01  2.83221036e+00  -4.54283557e+00   9.35833400e-01
C     8.696051649999999e+00   6.387260276518722e+00  -2.985890999999974e-01 -3.53426834e+00  -3.42882682e+00   5.44631500e-02
C     9.873792365200000e+00   7.078071518537219e+00  -1.804397999999985e-01  3.62421380e-01  -2.09941360e-01  -3.52682900e-02
C     1.106969342560000e+01   6.354862416856554e+00  -2.172269999999799e-02  2.16205582e+00   6.50021520e-01  -8.79477320e-01
C     1.234311262280000e+01   7.168604669349323e+00  -1.118637000000007e-01  7.51733700e-02  -4.45803542e+00   1.07970430e-01
