32
Lattice="9.86 0 0 4.93 8.53901048131456 0 0 0 30 " PBC="1 1 1" Properties=species:S:1:pos:R:3:force:R:3 Energy="-253.43904802"
C     5.053697298900000e+00   8.190915412249971e+00  -3.216119999999982e-01 -5.36203354e+00  -2.16559830e-01  -5.62149850e-01
C     1.246725613600000e+00   3.777842678978368e-01  -3.113865000000011e-01  5.09613921e+00   5.43470340e-01   2.84611090e-01
C     7.492125831399999e+00   8.270393533144142e+00  -2.272922999999984e-01  1.02203460e+00  -1.81789180e+00  -8.46514410e-01
C     3.821342931100000e+00   4.010386405281256e-01  -3.447765000000018e-01 -1.21541392e+00   9.63862350e-01  -1.10585510e+00
C     9.989248281700000e+00   8.150480635924026e+00  -5.298618000000026e-01 -2.19289005e+00   6.41357851e+00   6.98715330e-01
C     6.220052425600000e+00   4.118636295037264e-01  -5.426628000000022e-01  2.05588078e+00  -6.06187490e-01   2.00755540e-01
C     1.239027004480000e+01   8.275772597405913e+00  -5.444753999999996e-01  4.93011310e-01  -1.53071623e+00   2.92556800e-02
C     8.695840300900000e+00   4.305494607470056e-01  -3.712283999999997e-01  5.00146450e-01  -3.21759523e+00  -2.95325510e-01
C     1.277838054800000e+00   1.782542005368925e+00  -5.036799000000016e-01  2.59108010e+00   9.70194780e-01  -1.17226589e+00
C     2.502877929500000e+00   2.565285856627094e+00  -8.283989999999974e-01  2.18069339e+00  -2.03097276e+00   1.91720709e+00
C     3.783712438300000e+00   1.904974081460850e+00  -5.899905000000025e-01 -1.61464557e+00  -3.90533324e+00   4.93077630e-01
C     4.981606599099999e+00   2.551885758261039e+00  -4.974101999999974e-01  2.00556589e+00  -1.30669050e-01  -1.26899926e+00
C     6.283473523199999e+00   1.802665208246303e+00  -4.463715000000015e-01 -3.43025923e+00   2.30118033e+00   6.92185630e-01
C     7.431168698500000e+00   2.589780520529602e+00  -2.920878000000009e-01  1.97673793e+00  -2.89824717e+00  -1.20386089e+00
C     8.680630807200000e+00   1.778804992822458e+00  -3.365118000000002e-01  8.08431260e-01   4.14656465e+00   7.12810400e-02
C     9.982316701699999e+00   2.469782660155210e+00  -4.947176999999989e-01 -4.60539838e+00   2.12373875e+00   4.82615930e-01
C     2.627162539300000e+00   3.957918028436372e+00  -9.718292999999996e-01 -2.53244209e+00   1.71159410e+00   6.34092710e-01
C     3.888742045700000e+00   4.793077827015077e+00  -8.365034999999992e-01 -3.99006300e+00  -6.87373730e+00  -1.31221075e+00
C     5.010078433700000e+00   3.945308471660556e+00  -6.754838999999997e-01  1.04280881e+00   2.02240904e+00   1.39753363e+00
C     6.209351712700000e+00   4.632812725700359e+00  -3.903774000000020e-01  1.13598900e-02   3.86317654e+00  -1.02330003e+00
C     7.426135957300000e+00   4.005166422784727e+00  -3.754731000000007e-01  5.20920770e-01  -2.63046655e+00   1.02669886e+00
C     8.671255672699999e+00   4.601298482842662e+00  -4.199030999999991e-01  2.06987638e+00   3.23779609e+00  -7.05272600e-01
C     9.876063320400000e+00   3.912502874247968e+00  -5.996760000000023e-01  3.56093196e+00  -5.95924810e-01  -8.67676270e-01
C     1.117770755640000e+01   4.640766557792165e+00  -9.082371000000009e-01 -3.40128140e-01  -2.38231530e-01   6.60133000e-01
C     3.749527966200000e+00   6.123575462116112e+00  -8.295209999999997e-01  1.70321385e+00   2.53849021e+00   1.94746333e+00
C     4.950642452300000e+00   6.759349109816504e+00  -4.607781000000024e-01  3.27466005e+00   2.80489678e+00   1.43216740e-01
C     6.234481944000001e+00   6.138405503177148e+00  -3.546941999999973e-01  6.00151920e-01  -3.15155136e+00  -4.00897000e-02
C     7.572986409600000e+00   6.787345024186126e+00  -2.669768999999995e-01 -2.78791670e+00   1.36560474e+00  -2.38805980e-01
C     8.790221699899998e+00   6.060901430725742e+00  -4.470510000000019e-01 -1.37115795e+00   4.78533680e-01   1.27501600e-01
C     1.000277521570000e+01   6.842930139856210e+00  -6.544086000000000e-01 -7.42806000e-01  -6.70942001e+00   3.13163000e-03
C     1.120846696030000e+01   6.061205419498829e+00  -8.861996999999988e-01 -5.11485840e-01   1.84757354e+00   1.17022165e+00
C     1.240611289560000e+01   6.846279395936780e+00  -7.215363000000004e-01 -8.17004140e-01  -7.79160080e-01  -1.33737190e+00
