32
Lattice="9.86 0 0 4.93 8.53901048131456 0 0 0 30 " PBC="1 1 1" Properties=species:S:1:pos:R:3:force:R:3 Energy="-257.2364719"
C     9.660148793899999e+00   1.868360853885126e+00   3.805869900000000e+00 -3.95232580e-01   1.84726919e+00   4.29379760e-01
C     1.086991503560000e+01   2.651496133383698e+00   3.856052400000000e+00  2.99615520e-01  -3.18590492e+00  -3.44933700e-02
C     2.250404692200000e+00   1.903206420901386e+00   3.868185300000000e+00 -2.82675530e-01  -1.24807210e-01  -2.95293120e-01
C     3.476556084699999e+00   2.593594213390180e+00   3.752712000000000e+00  4.96633260e-01   2.50293230e-01   4.82731500e-02
C     4.706404385599999e+00   1.850679893395133e+00   3.715462200000000e+00 -1.34877790e-01   1.68823639e+00  -9.59953090e-01
C     5.949927964199999e+00   2.569714443632336e+00   3.639497400000000e+00  2.21671650e-01  -9.55200820e-01   7.59008500e-02
C     7.193038359500000e+00   1.868270340374038e+00   3.651402000000000e+00 -1.39563380e-01   3.80064000e-03   2.38963460e-01
C     8.417932897800000e+00   2.585800743915189e+00   3.736920600000000e+00 -4.16260400e-01  -9.86556900e-02  -6.71508200e-02
C     1.086348449150000e+01   4.032053546643522e+00   3.793543200000000e+00  7.55811280e-01   7.22763200e-01  -4.52049420e-01
C     1.211458400110000e+01   4.721792801286361e+00   3.670191300000000e+00 -3.60316620e-01   9.45573780e-01  -2.78120500e-02
C     3.481380632000000e+00   4.028123808630522e+00   3.641517300000000e+00  6.14773530e-01  -6.61458440e-01   3.96661170e-01
C     4.744637817400000e+00   4.722391471311114e+00   3.612409500000000e+00 -1.05224745e+00  -8.39758470e-01  -9.14177100e-02
C     5.972631698799999e+00   3.968340659238155e+00   3.616578300000000e+00 -1.72441488e+00   1.98115206e+00   6.06449260e-01
C     7.129818110100000e+00   4.754708295763827e+00   3.735945600000000e+00  2.11954272e+00  -1.91588832e+00  -7.58709860e-01
C     8.367834582899999e+00   4.004470322650397e+00   3.748287300000000e+00  1.42829187e+00   1.06324708e+00   1.76691770e-01
C     9.640927068999998e+00   4.718530813892896e+00   3.752814300000000e+00 -1.77657782e+00   3.15943180e-01  -3.27521540e-01
C     1.211068215260000e+01   6.162204750066165e+00   3.593483700000000e+00 -1.27077096e+00  -8.19203560e-01   2.43321810e-01
C     1.331577465570000e+01   6.854810465137034e+00   3.654351300000000e+00  1.75905662e+00   6.40795810e-01   2.59714640e-01
C     4.717474700600000e+00   6.131977336087804e+00   3.667101000000000e+00 -2.35448580e-01   7.06705680e-01   3.17268890e-01
C     5.945561216700000e+00   6.848768773662015e+00   3.797192100000000e+00 -1.10217342e+00   1.86468297e+00  -5.96551930e-01
C     7.155607679599999e+00   6.163678412494804e+00   3.721384800000000e+00  7.11652310e-01   2.22870600e-02   8.12982160e-01
C     8.407223803899999e+00   6.867379717783384e+00   3.740141700000000e+00 -5.69604540e-01  -3.55161620e-01  -7.63774140e-01
C     9.613919592300000e+00   6.136728014568352e+00   3.628796100000000e+00  8.95230700e-01   4.48114210e-01   6.86607200e-01
C     1.085298679600000e+01   6.864100310808541e+00   3.582696600000000e+00  3.27753140e-01   4.47743780e-01  -1.60949650e-01
C     1.333363363000000e+01   8.295202091071896e+00   3.758341500000000e+00  9.69537090e-01  -1.36314720e+00  -3.65374110e-01
C     9.645674658999999e+00   4.641659225947744e-01   3.864949800000000e+00 -4.90316350e-01  -2.51956300e-02  -5.12327030e-01
C     5.928972604799999e+00   8.316183464502513e+00   3.855027000000000e+00  1.47020732e+00  -1.97596445e+00   3.01132070e-01
C     2.262586722200000e+00   4.606732965282448e-01   3.866349300000000e+00 -1.15403854e+00   7.07459190e-01  -2.90642200e-01
C     8.412311366699999e+00   8.287704754480352e+00   3.724992000000000e+00 -6.59547550e-01  -3.96293420e-01  -1.04184300e-02
C     4.682116937799999e+00   4.599346721217248e-01   3.573733800000000e+00  1.42571941e+00  -2.67938220e-01   1.04451874e+00
C     1.086576037670000e+01   8.308433885541390e+00   3.552315600000000e+00  2.99428320e-01  -1.36434603e+00   1.70684330e-01
C     7.208998494999999e+00   4.464044392359552e-01   3.644763000000000e+00 -2.03085834e+00   6.92856560e-01  -9.41107800e-02
