32
Lattice="9.86 0 0 4.93 8.53901048131456 0 0 0 30 " PBC="1 1 1" Properties=species:S:1:pos:R:3:force:R:3 Energy="-253.78270527"
C     5.168787803800000e+00   7.887631876037513e+00  -9.432516000000000e-01 -4.81475861e+00   2.32579857e+00   1.90172170e-01
C     1.332991148000000e+00   1.435568195085024e-01  -9.786309000000024e-01  4.99609559e+00   1.08886447e+00  -2.40143450e-01
C     7.573445096800000e+00   7.987640937559483e+00  -1.034445600000002e+00 -5.30476827e+00  -2.70622206e+00   9.17228150e-01
C     3.789486848700000e+00   1.097272239591528e-01  -9.386121000000003e-01  2.72247673e+00   2.53624743e+00  -4.77512180e-01
C     9.927130922600000e+00   7.970514585800166e+00  -9.629936999999984e-01  3.77676653e+00  -1.20795109e+00  -7.73240750e-01
C     6.349977547000000e+00   1.600521383933472e-01  -9.598854000000010e-01 -1.32692041e+00  -5.12116528e+00  -1.79316250e-01
C     1.250066265410000e+01   7.981096383757297e+00  -1.085526600000001e+00  9.15008690e-01  -5.86926200e-02   8.35073130e-01
C     8.844341563700000e+00   1.608610388561176e-01  -9.527555999999997e-01 -2.69074120e-01  -1.10252365e+00  -3.41080940e-01
C     1.417398565400000e+00   1.620833640502877e+00  -1.084290299999999e+00  1.37799331e+00  -1.87301981e+00  -1.49758221e+00
C     2.697579898500000e+00   2.280580389345658e+00  -1.413599099999999e+00 -3.26394866e+00   1.01971574e+00   1.40253900e+00
C     3.842354344599999e+00   1.548190228987002e+00  -1.105216800000001e+00  3.32979640e-01  -8.08793000e-01  -8.04599500e-01
C     5.081960594500000e+00   2.151457059251500e+00  -1.156749600000001e+00  2.55730954e+00   3.07752377e+00   1.50538730e-01
C     6.401046233799999e+00   1.490791683661280e+00  -9.341997000000006e-01 -3.95519742e+00   3.54846167e+00  -1.02909380e-01
C     7.520969979600000e+00   2.262422268950043e+00  -8.564772000000005e-01  5.05493614e+00   2.68832969e+00  -1.62650387e+00
C     8.885412506300000e+00   1.609669482031010e+00  -9.300287999999988e-01 -3.57806911e+00  -1.52978370e+00   1.21057100e-01
C     1.008341098590000e+01   2.309875001819185e+00  -1.132022700000000e+00 -1.16069378e+00   1.31461957e+00   6.95926990e-01
C     2.654004072200000e+00   3.769786976491536e+00  -1.611345300000000e+00 -7.20197690e-01  -3.90274615e+00   1.11710965e+00
C     3.897967604000000e+00   4.359417092409578e+00  -1.542228000000001e+00  1.33670150e-01   2.59085978e+00   6.61643590e-01
C     5.134054672000000e+00   3.608024815859464e+00  -1.351617900000001e+00 -1.50865645e+00  -1.40101520e-01   4.97662340e-01
C     6.297164478299999e+00   4.393934078302569e+00  -1.153897199999999e+00  1.72463300e-02   2.43875070e-01   1.67288540e-01
C     7.559840268800000e+00   3.776695548310485e+00  -1.060518000000002e+00 -9.91965180e-01  -4.00981971e+00   6.18283820e-01
C     8.783106773200000e+00   4.451323145326658e+00  -1.175318100000002e+00  2.47381000e-03  -2.04258339e+00  -1.00597040e-01
C     1.002595375860000e+01   3.726029500407614e+00  -1.250217599999999e+00  7.27248710e-01   9.36382800e-01  -2.43981170e-01
C     1.126235526200000e+01   4.452697755233728e+00  -1.433439600000000e+00 -5.68301790e-01  -3.33419800e-02  -5.07023950e-01
C     3.780944539100000e+00   5.839753697029252e+00  -1.348520699999998e+00  4.90442896e+00  -2.61345946e+00   1.00255454e+00
C     5.058257844700000e+00   6.473543647205035e+00  -9.643997999999989e-01 -4.30590510e+00   2.51984957e+00  -1.54153125e+00
C     6.186190079699999e+00   5.817958555899891e+00  -9.992312999999982e-01  6.55418734e+00  -2.40815622e+00  -6.61009490e-01
C     7.503924356700000e+00   6.533902325903752e+00  -1.017692100000001e+00 -1.53770874e+00   7.47498210e-01  -5.55818820e-01
C     8.691431746999999e+00   5.828513029023484e+00  -1.231847100000000e+00  2.31778982e+00   1.42512051e+00   9.25690880e-01
C     9.960001007399999e+00   6.531243704990805e+00  -1.192703400000003e+00  7.54158100e-02   1.93983765e+00   1.57496400e-02
C     1.123444919420000e+01   5.883946748037758e+00  -1.378511100000001e+00 -1.03642627e+00  -1.14717067e+00   4.70778570e-01
C     1.248694650670000e+01   6.530977373253934e+00  -1.276360199999999e+00 -2.12343547e+00   2.70254582e+00  -1.36446580e-01
