32
Lattice="9.86 0 0 4.93 8.53901048131456 0 0 0 30 " PBC="1 1 1" Properties=species:S:1:pos:R:3:force:R:3 Energy="-255.04356884"
C     1.083067608100000e+00   1.000384101009894e+00   3.419600100000000e+00  1.86671107e+00  -1.53005406e+00   4.40822200e-01
C     2.401895852100000e+00   1.660001654624113e+00   3.310367400000000e+00 -1.80797408e+00  -1.13988163e+00   8.04315600e-01
C     3.621003753600000e+00   9.721176707882639e-01   3.598912500000000e+00  3.56790520e-01  -1.53567052e+00  -8.84100730e-01
C     4.839255807100000e+00   1.698998461585225e+00   3.413704500000000e+00  4.09681170e-01  -2.04968510e+00   1.90199581e+00
C     6.113937084300000e+00   9.924371855165768e-01   3.629904000000000e+00 -3.81510998e+00  -1.31954361e+00  -5.99702760e-01
C     7.303265074300000e+00   1.662787421403108e+00   3.617608500000000e+00  1.22243085e+00  -1.00321786e+00   5.24634890e-01
C     8.475656443700000e+00   9.085933247342952e-01   3.560887800000000e+00  3.24349884e+00   2.41083210e-01  -1.63586860e-01
C     9.709256178800000e+00   1.685521768295165e+00   3.422823300000000e+00  5.96344210e-01  -4.36596520e-01  -9.72892070e-01
C     2.384389126300000e+00   3.030652364095356e+00   3.071325900000000e+00  3.82885560e-01   2.79546375e+00  -8.54600900e-02
C     3.623091164900000e+00   3.799812272091836e+00   3.127236300000000e+00 -7.92217310e-01   2.93727640e-01  -1.60609880e-01
C     4.823121593300000e+00   3.096180730518876e+00   3.367789200000000e+00  1.45554906e+00   3.20998650e-01  -9.38600200e-02
C     6.091099352300000e+00   3.743468806901023e+00   3.617279100000000e+00 -4.01125270e-01   1.46796717e+00   3.68908940e-01
C     7.371045524399999e+00   3.043559505386400e+00   3.746575800000000e+00 -2.90049321e+00   1.89014268e+00  -1.73284942e+00
C     8.496239193699999e+00   3.813723515625223e+00   3.479432100000000e+00  2.85549164e+00  -2.63980380e-01  -2.33617780e-01
C     9.769895030899999e+00   3.106551529527046e+00   3.176579400000000e+00 -2.13979276e+00  -1.07808850e-01   1.63081837e+00
C     1.099643219590000e+01   3.784530688156619e+00   3.028282800000000e+00  1.88192080e-01   8.82594080e-01   6.43770670e-01
C     3.637963939600000e+00   5.252063729682369e+00   3.101301300000000e+00 -1.59922955e+00  -1.65792994e+00   1.38512039e+00
C     4.816320313199999e+00   5.866210881710379e+00   3.508063800000000e+00  1.76358967e+00   2.28484734e+00  -2.83789420e-01
C     6.025386396300000e+00   5.186493949058022e+00   3.714381000000000e+00  2.69753592e+00  -8.23294790e-01  -1.56590910e-01
C     7.310599681799999e+00   5.942001943269392e+00   3.845604900000000e+00 -2.16129634e+00   7.26441130e-01  -7.08279390e-01
C     8.506210956800000e+00   5.235298065725727e+00   3.567411600000000e+00 -9.51412500e-02  -6.73516200e-02   5.01091180e-01
C     9.749953723200001e+00   5.925814028761828e+00   3.444454200000000e+00  5.99813520e-01   5.13733320e-01   4.30854210e-01
C     1.097220164030000e+01   5.259654483048566e+00   3.201053100000000e+00  1.29795201e+00  -1.87216982e+00  -9.49124540e-01
C     1.224460560260000e+01   5.962717582693872e+00   3.184645500000000e+00 -1.09203169e+00  -8.33526080e-01   6.51721910e-01
C     4.931894500400000e+00   7.318047087221270e+00   3.566531700000000e+00 -3.53113452e+00  -2.69457810e-01  -3.28728490e-01
C     6.084006955700000e+00   8.085133979643521e+00   3.607847400000000e+00 -1.14566260e-01   1.85077604e+00   5.34852770e-01
C     7.290193228600000e+00   7.442941386985104e+00   3.866097900000000e+00  1.26131029e+00  -4.07832926e+00  -5.57470310e-01
C     8.559198251700000e+00   8.015202557856094e+00   3.842580300000000e+00 -3.02553430e-01   4.13536450e+00  -1.17798695e+00
C     9.783976491299999e+00   7.340630464408041e+00   3.668882700000000e+00 -5.15857510e-01  -1.49798920e-01   6.03691000e-02
C     1.098148867570000e+01   8.091480684572886e+00   3.635372100000000e+00  2.14131283e+00  -6.26807880e-01  -2.25942190e-01
C     1.223620305850000e+01   7.321562512445781e+00   3.526899900000000e+00  4.70376740e-01   1.60268705e+00  -6.28309760e-01
C     1.352443626480000e+01   8.013501672358583e+00   3.546177900000000e+00 -1.54094283e+00   7.59278090e-01   6.36255200e-02
