2
Lattice="2.506 0 0 1.253 2.1702596618838 0 0 0 30 " PBC="1 1 1" Properties=species:S:1:pos:R:3:force:R:3 Energy="-16.09493853"
C     0.000000000000000e+00   0.000000000000000e+00   3.000000000000000e+00 -0.00000000e+00   0.00000000e+00  -0.00000000e+00
C     1.253000000000000e+00   7.234198872946009e-01   3.000000000000000e+00  0.00000000e+00   0.00000000e+00   0.00000000e+00
