32
Lattice="9.86 0 0 4.93 8.53901048131456 0 0 0 30 " PBC="1 1 1" Properties=species:S:1:pos:R:3:force:R:3 Energy="-253.31908316"
C     9.845011616800001e+00   3.474328674873056e-01   3.586024200000000e+00 -9.61629170e-01   3.77443400e+00   1.44021800e-01
C     1.171726164500000e+00   1.211374681740423e+00   3.542203800000000e+00 -5.71946110e-01  -2.88241281e+00  -6.75165000e-02
C     2.340594309400000e+00   4.582118413672800e-01   3.880067700000000e+00  1.91652178e+00   5.98082370e-01   1.06715328e+00
C     3.599869336599999e+00   1.158899473687155e+00   3.855319500000000e+00  6.70991800e-02  -2.60059460e-01  -1.12016122e+00
C     4.848439756199999e+00   3.597474868411424e-01   3.903964500000000e+00 -1.43104396e+00   4.69401581e+00   5.07816720e-01
C     6.036084200499999e+00   1.147754271818554e+00   3.869102700000000e+00  1.57997644e+00   1.20009364e+00  -7.87147810e-01
C     7.307008275399999e+00   5.232044702732848e-01   3.756935700000000e+00  4.41249560e-01  -2.21445675e+00  -4.32567790e-01
C     8.611296026700000e+00   1.107801266463892e+00   3.468192600000000e+00 -2.47049792e+00   1.45781008e+00   1.55466844e+00
C     1.101742931240000e+01   2.586399499330046e+00   3.153501600000000e+00 -2.83203350e-01  -3.85359220e-01   6.24378620e-01
C     2.411694917300000e+00   3.282480420886067e+00   3.190318800000000e+00 -5.52564400e-01   7.93054990e-01   9.09588830e-01
C     3.588254700299999e+00   2.598444029782401e+00   3.539389200000000e+00  1.73361345e+00  -7.15450140e-01   1.47410681e+00
C     4.808786484400000e+00   3.378817964071950e+00   3.874925700000000e+00 -5.54102610e-01  -2.46234450e+00  -1.74661446e+00
C     6.065476022400000e+00   2.616167856105003e+00   3.847027500000000e+00 -3.21505518e+00  -1.17234384e+00   1.05166922e+00
C     7.231854270800000e+00   3.306108802175379e+00   3.848571900000000e+00  5.12936526e+00  -6.98292390e-01  -1.43192932e+00
C     8.537493630899998e+00   2.570747407730102e+00   3.478557300000000e+00 -6.39334100e-01  -5.61970240e-01  -3.74729400e-02
C     9.740167870399999e+00   3.279031599943299e+00   3.164733000000000e+00 -3.63526810e-01   2.22948280e-01   8.47402420e-01
C     1.226843963830000e+01   4.732761843368760e+00   3.281462100000000e+00 -3.25522630e-01   2.97717250e-01  -1.81010850e-01
C     3.575625667200000e+00   5.507077520502958e+00   3.569389800000000e+00  1.32697217e+00  -7.08234080e-01   1.10866119e+00
C     4.803499798900000e+00   4.765027177588277e+00   3.881452500000000e+00  1.94376708e+00   1.22154400e+00   5.15253110e-01
C     6.177188195499999e+00   5.399234343816113e+00   4.223323500000000e+00 -5.56455971e+00   3.14356152e+00  -6.99402660e-01
C     7.348334739899999e+00   4.727311563759585e+00   4.044317700000001e+00 -3.69603110e-01  -2.12402457e+00  -2.66030740e-01
C     8.553314148800000e+00   5.400278579407712e+00   3.874379400000000e+00  1.71868016e+00   1.16035944e+00  -6.48729650e-01
C     9.702120003799999e+00   4.693800302520930e+00   3.277089900000000e+00  1.53326185e+00   2.20710074e+00   1.84779343e+00
C     1.101945884550000e+01   5.429343065548803e+00   3.309308100000000e+00 -1.52050515e+00   2.00428140e-01   2.80239230e-01
C     1.343138133160000e+01   6.950973983289336e+00   3.735003600000000e+00  1.46001794e+00  -3.73804144e+00   1.70122270e-01
C     4.848665205100000e+00   7.537063740072266e+00   3.942977400000000e+00  9.07696420e-01   9.33243850e-01  -2.44425630e-01
C     6.085321737399999e+00   6.896078221935302e+00   4.292082600000001e+00 -2.62439040e-01  -3.31257374e+00  -6.28427030e-01
C     7.296701420200000e+00   7.581765545325172e+00   4.345099200000000e+00  6.49777710e-01   1.49103560e+00  -2.33699219e+00
C     8.563088169600000e+00   6.857514172025317e+00   4.149740400000000e+00 -2.34846602e+00  -2.28027370e+00  -4.71432060e-01
C     9.714764369199999e+00   7.537563186795242e+00   3.912492600000000e+00  4.11197106e+00  -1.41793147e+00  -8.69588300e-01
C     1.102153398110000e+01   6.836893742567689e+00   3.605142600000000e+00 -1.73530851e+00   7.63050600e-02   7.54160030e-01
C     1.222563777270000e+01   7.598717615880591e+00   3.748435500000000e+00 -1.35066228e+00   1.46203357e+00  -8.87586250e-01
