32
Lattice="9.596 0 0 4.798 8.31037977471547 0 0 0 30 " PBC="1 1 1" Properties=species:S:1:pos:R:3:force:R:3 Energy="-256.23105652"
C    -9.379826568898460e-03  -4.103161068715255e-03   3.006092841750605e+00  8.87137030e-01   6.13564350e-01  -9.50369000e-03
C     1.194804965201027e+00   6.998607239320669e-01   3.006978339429550e+00  4.05085600e-01  -4.42844640e-01  -9.01867900e-02
C     2.407840743849698e+00   3.679845378910075e-03   2.986400915206187e+00 -8.37625560e-01   1.73857930e-01   1.35073970e-01
C     3.605921299288314e+00   6.838870182857585e-01   2.999834355809087e+00 -4.73194670e-01   8.70509450e-01  -8.84164700e-02
C     4.798437791312020e+00   4.279891892422719e-03   2.993573944965386e+00 -6.22409600e-02  -1.83425570e-01   1.10993760e-01
C     5.985995222915825e+00   6.963110458545086e-01   3.006876539159308e+00  1.07926672e+00   5.88200100e-02  -1.35023540e-01
C     7.200227663679927e+00   6.746286180374214e-03   2.996321249509760e+00 -3.53518020e-01  -6.85041000e-03   2.14708350e-01
C     8.406189236184572e+00   6.916566361608941e-01   3.010699452657722e+00 -9.49779840e-01   7.18358940e-01  -9.30566700e-02
C     1.204951171050342e+00   2.083739917499240e+00   3.006548506574134e+00 -4.49940090e-01  -8.58266500e-02  -1.57401250e-01
C     2.395284277064347e+00   2.777926478400246e+00   2.994252325580888e+00  6.27053970e-01  -1.39039130e-01   1.54522370e-01
C     3.595811427627745e+00   2.074326245000340e+00   3.002693999043761e+00  5.61171500e-02   5.38115700e-02  -9.96099400e-02
C     4.801221681367777e+00   2.763427072645332e+00   2.992956094541384e+00 -2.65261140e-01   3.46170240e-01   1.80269580e-01
C     6.003082614103789e+00   2.081088524000604e+00   3.005768856812625e+00 -1.98395040e-01  -2.93803110e-01  -7.15244000e-03
C     7.204410550645172e+00   2.770092448922900e+00   3.010214130752634e+00 -7.50803520e-01   2.19410320e-01  -1.47180470e-01
C     8.388268315622325e+00   2.088879732233261e+00   3.002959440440046e+00  1.32610643e+00  -6.95368080e-01   1.23069300e-02
C     9.602632670886265e+00   2.781299239943403e+00   2.986802888260816e+00 -5.90561910e-01  -9.99116880e-01   2.25693160e-01
C     2.402438755637008e+00   4.167592022484023e+00   3.004257807632555e+00 -8.02492670e-01  -7.74302690e-01  -7.15746300e-02
C     3.586458470236846e+00   4.843142886525611e+00   3.009198688937284e+00  1.38942820e+00   5.20076960e-01  -3.96970000e-03
C     4.795890743716915e+00   4.150196647132727e+00   3.008817300969459e+00  6.50644400e-02   5.43576800e-02  -1.10326200e-01
C     6.010653878226351e+00   4.834863495090350e+00   3.000511981756675e+00 -1.35061024e+00   1.06340332e+00   2.41920400e-02
C     7.189868748564479e+00   4.155184715629447e+00   2.990423312589616e+00  1.03357119e+00  -4.81921360e-01   1.63904100e-01
C     8.400600288921956e+00   4.832686484373171e+00   3.004448424868131e+00 -5.64715060e-01   6.95475550e-01  -3.06269700e-02
C     9.588550427364181e+00   4.147313408320577e+00   3.002404290670037e+00  8.44673520e-01   5.74386330e-01  -1.05868420e-01
C     1.079292148805617e+01   4.847802179828107e+00   2.998683071730372e+00 -1.87863220e-01   2.65298500e-02   4.18687500e-02
C     3.611101152652577e+00   6.231622988711163e+00   3.005289437183406e+00 -1.28026348e+00   8.23471400e-02   2.70043600e-02
C     4.788200458611193e+00   6.932596209422390e+00   2.996568653183358e+00  1.08230354e+00  -7.90011900e-01   1.03123890e-01
C     6.001213094185304e+00   6.233883541813143e+00   3.003304785924132e+00 -4.18276670e-01  -7.35413900e-02  -1.39065810e-01
C     7.190816822055307e+00   6.935427995321922e+00   2.988541873543879e+00  7.28609250e-01  -9.84061450e-01   1.41084120e-01
C     8.403550053454827e+00   6.219437461816803e+00   3.010707406926624e+00 -8.10813690e-01   7.48952440e-01  -1.66881840e-01
C     9.584601659909758e+00   6.937680937979593e+00   3.001681582781367e+00  8.11373700e-01  -1.10167448e+00  -3.87563000e-02
C     1.079254720268531e+01   6.227093521213341e+00   2.995491295742210e+00 -8.10545500e-02   8.60284360e-01   1.36412470e-01
C     1.199650692913190e+01   6.933567428382028e+00   3.009584924800228e+00  9.16195600e-02  -6.28528690e-01  -1.76556730e-01
