32
Lattice="9.86 0 0 4.93 8.53901048131456 0 0 0 30 " PBC="1 1 1" Properties=species:S:1:pos:R:3:force:R:3 Energy="-255.67899597"
C     9.753990604399998e+00   7.944201795786257e-01   3.960512099999999e+00  6.34372780e-01  -8.09661570e-01  -2.62747930e-01
C     1.142573250400000e+00   1.507254212745881e+00   3.838406100000000e+00  1.80103270e-01  -1.65561356e+00  -4.38744780e-01
C     2.380916138500000e+00   7.854315901968536e-01   3.687512100000000e+00  1.34289120e-01  -1.24513143e+00  -1.83521460e-01
C     3.596449740700000e+00   1.497419748985961e+00   3.434494800000000e+00 -6.50932300e-02  -1.56754480e-01   6.10098310e-01
C     4.898815235700000e+00   8.631965294184233e-01   3.480716700000000e+00 -4.20306748e+00  -2.51012376e+00   2.66525030e-01
C     6.048487538200000e+00   1.558250378793909e+00   3.655227900000000e+00  4.09527756e+00  -3.38983544e+00   4.53448580e-01
C     7.302029073999999e+00   7.451468442850432e-01   3.829304100000000e+00 -4.38230600e-02   2.67128515e+00  -1.27073960e-01
C     8.529952308499999e+00   1.526800263904916e+00   3.966187500000000e+00  3.17459230e-01  -1.22999775e+00  -2.19293730e-01
C     1.101196144940000e+01   2.883275959809045e+00   3.652337400000000e+00  2.71094030e-01   2.98944339e+00  -5.45887140e-01
C     2.354841220600000e+00   3.632535533101675e+00   3.378251400000000e+00  1.50282780e-01  -1.18002667e+00   7.55662390e-01
C     3.552719950500000e+00   2.902918672566713e+00   3.345862200000000e+00  2.90326503e+00   6.10361850e-01   1.31597800e-02
C     4.860068886700000e+00   3.588540587136305e+00   3.384461100000000e+00 -4.40868650e-01   2.12331164e+00   1.11897131e+00
C     6.114472482299999e+00   2.912511738500364e+00   3.665064300000000e+00 -9.94665960e-01   3.06014892e+00  -1.00750904e+00
C     7.351309304699999e+00   3.651962550454618e+00   3.760108200000000e+00 -2.14047800e-02  -1.91825770e-01   1.15958853e+00
C     8.604765650099999e+00   2.961148405172558e+00   3.933284100000000e+00 -1.13393344e+00   1.41019520e-01  -1.35489074e+00
C     9.838071162800000e+00   3.680878628593566e+00   3.693631800000000e+00 -1.90602629e+00  -3.76523050e-01   1.20904112e+00
C     1.227263851930000e+01   5.028633091534052e+00   3.402650400000000e+00 -1.70104801e+00   1.92380294e+00  -1.10734950e-01
C     3.622018495500000e+00   5.769243159551070e+00   3.385713600000000e+00  4.47208780e-01   1.85548200e-01   5.20544440e-01
C     4.854725703400000e+00   5.081954173965468e+00   3.472825200000000e+00  7.66354270e-01  -1.92987853e+00  -7.87273580e-01
C     6.088046992099999e+00   5.804724968238196e+00   3.600722100000000e+00  7.97032700e-02  -1.22123417e+00   1.32926640e+00
C     7.339160848000000e+00   5.069574316571565e+00   3.813513300000000e+00 -2.13957896e+00   3.77007870e-01  -1.79696864e+00
C     8.522998937899999e+00   5.811593919048518e+00   3.716395800000000e+00  2.01808242e+00  -2.33420801e+00   4.21187370e-01
C     9.779137992099999e+00   5.142457247331404e+00   3.637582200000000e+00  1.01804630e+00  -2.44653474e+00  -1.82757620e-01
C     1.103386681980000e+01   5.799621970185243e+00   3.519612000000000e+00 -4.74298870e-01  -4.95848940e-01  -3.70550360e-01
C     1.349972769640000e+01   7.199690766221554e+00   3.562168500000000e+00 -4.97187500e-02  -1.32024872e+00   9.81759840e-01
C     4.860923354300001e+00   7.862151041814670e+00   3.832501200000000e+00 -1.89991704e+00   3.38974325e+00  -4.75920830e-01
C     6.073056193199999e+00   7.235831957297944e+00   3.765324600000000e+00  7.06529330e-01  -3.36377563e+00  -5.02728560e-01
C     7.307024643000000e+00   7.845452579870506e+00   3.739374300000000e+00  6.55600360e-01   4.03910682e+00   2.02001460e-01
C     8.534074330799999e+00   7.165658198393094e+00   3.684482400000000e+00  7.39970230e-01   3.75955402e+00  -6.22616970e-01
C     9.765156314900000e+00   7.961098362773556e+00   3.553765500000000e+00  9.79197740e-01  -1.44567785e+00  -3.95468000e-03
C     1.100874501880000e+01   7.211830506640760e+00   3.511118700000000e+00  2.01282410e-01   5.57421520e-01   8.62527710e-01
C     1.227354312500000e+01   7.874627475417102e+00   3.688606200000000e+00 -1.22467440e+00   1.47514499e+00  -9.10607300e-01
