26
Lattice="8.88768389401873 1.33226762955019e-15 0 4.44384194700937 7.69696003302603 0 0 0 30 " PBC="1 1 1" Properties=species:S:1:pos:R:3:force:R:3 Energy="-207.07762078"
C     9.701792632007493e-01   1.288910374530912e+00   3.414676200000000e+00 -1.39655338e+00  -2.17400363e+00   2.00363125e+00
C     3.294425650806373e+00   6.328090324984634e-01   3.412223400000000e+00  3.81343773e+00   1.69300088e+00   9.33675440e-01
C     4.726707239009746e+00   1.008669678619434e+00   3.464842200000000e+00 -1.64784410e-01   2.59486964e+00   9.77983620e-01
C     5.785868392113618e+00   1.109389788484005e-01   3.533207100000000e+00  7.55346310e-01  -1.96264123e+00  -9.39521400e-02
C     7.207300784612957e+00   5.183383805098978e-01   3.582480600000000e+00 -2.99603793e+00  -2.89140512e+00   8.58534330e-01
C     1.260520529252225e+01   7.168288942467429e+00   3.668966700000000e+00 -5.06647970e-01   1.46245210e-01  -9.32782870e-01
C     5.043748303047948e+00   7.566319296502009e+00   3.536582100000000e+00  3.25001731e+00   3.82900600e-01  -4.49055380e-01
C     6.159527335364618e+00   6.594761126424022e+00   3.493894200000000e+00 -2.17404263e+00  -2.79463140e-01  -1.80542430e-01
C     7.512014186652483e+00   6.985087054377374e+00   3.415190700000000e+00 -1.67804269e+00  -1.18531612e+00   1.11968988e+00
C     8.544547305527082e+00   6.035328137526752e+00   3.634872600000000e+00 -1.86309004e+00  -2.40241293e+00  -1.77092952e+00
C     9.846961256828576e+00   6.396332111397816e+00   3.575380200000000e+00  3.80051996e+00   4.02474600e-01   6.92472000e-03
C     1.086111548967650e+01   5.335542775813638e+00   3.558436800000000e+00  6.89199340e-01   1.82590900e+00   1.03040363e+00
C     3.357148439047733e+00   5.797439194484346e+00   3.640474200000000e+00  3.68850920e-01  -1.80466386e+00  -5.64392120e-01
C     4.442066411077811e+00   4.813580204704015e+00   3.583950600000000e+00 -2.31255047e+00  -5.79137090e-01  -2.66515040e-01
C     5.816153044963176e+00   5.205774107887047e+00   3.514724100000000e+00 -1.07128855e+00  -5.86346600e-02   9.77163050e-01
C     6.788983058390669e+00   4.195681646206068e+00   3.618917100000000e+00  3.15012551e+00   6.17809470e-01  -1.36001672e+00
C     8.240402363024307e+00   4.610313034542152e+00   3.552846000000000e+00 -4.17046174e+00   7.30786340e-01   1.18895574e+00
C     9.163869380219458e+00   3.576002857822781e+00   3.560969100000000e+00  1.44878439e+00   3.36218958e+00   2.48643760e-01
C     1.050592697884224e+01   3.959620577231586e+00   3.609392400000000e+00  2.60752983e+00   2.84125350e-01  -1.58703060e+00
C     2.675946439528936e+00   2.958561344811415e+00   3.450665400000000e+00  2.32849300e-02   2.68311573e+00   2.12811240e+00
C     4.032847714558565e+00   3.395748828454616e+00   3.536453400000000e+00  2.63361549e+00   3.89545900e-01   3.87234410e-01
C     5.149922260109733e+00   2.412291235139850e+00   3.641176500000000e+00 -3.52089189e+00  -4.05017710e-01  -1.99592271e+00
C     6.497660377456311e+00   2.801941139093765e+00   3.562379700000000e+00 -6.35296850e-01   8.61723810e-01   1.70144839e+00
C     7.535521662812129e+00   1.835498291682117e+00   3.686770800000000e+00 -6.49573860e-01   1.73331300e+00  -1.73849250e+00
C     8.853693344385901e+00   2.274344778090184e+00   3.540328800000000e+00 -3.90580830e-01  -3.41783318e+00   1.06021310e-01
C     2.305580875326542e+00   1.623617453550680e+00   3.592152900000000e+00  9.89131500e-01  -5.47480450e-01  -2.72878994e+00
