26
Lattice="8.88768389401873 1.33226762955019e-15 0 4.44384194700937 7.69696003302603 0 0 0 30 " PBC="1 1 1" Properties=species:S:1:pos:R:3:force:R:3 Energy="-206.51482716"
C     1.279099748039813e+01   7.080778894193546e+00  -3.408440999999982e-01  3.81810416e+00  -1.51342827e+00   2.81441160e-01
C     9.072454754177866e+00   6.833906829100127e+00  -4.176795000000020e-01  1.46002786e+00  -1.99835887e+00   2.52922600e-02
C     1.045897983444656e+01   6.401018251572881e+00  -6.482352000000020e-01 -7.03830920e-01   3.56267696e+00  -2.21040860e-01
C     1.071456100391169e+01   5.063057998645990e+00  -7.029014999999994e-01  3.71699108e+00  -1.24181630e+00   7.22912750e-01
C     6.673001184646463e+00   6.267155724545533e+00   1.585590000000000e-02  1.21128616e+00  -2.80574770e+00  -1.46044984e+00
C     8.082882431594307e+00   5.822746876032586e+00  -3.018695999999998e-01 -2.01150603e+00   1.02670487e+00   4.13000160e-01
C     8.381336899340431e+00   4.429409920534657e+00  -5.162252999999986e-01  5.28004950e-01   1.62454263e+00   8.67686650e-01
C     9.777036780171926e+00   4.065379501979796e+00  -5.263266000000009e-01 -1.72872478e+00  -2.18094522e+00   3.24190550e-01
C     1.012601475346275e+01   2.678430022701963e+00  -2.211825000000012e-01 -2.43328926e+00   7.29975100e-01  -3.11446540e-01
C     4.255327685397825e+00   5.717247415806987e+00  -4.535048999999987e-01  1.11976931e+00  -2.84992597e+00   7.65709430e-01
C     5.657534550622632e+00   5.273947314386362e+00  -2.304189000000001e-01 -1.61809839e+00   9.20393080e-01  -7.85705050e-01
C     5.953994844301455e+00   3.889105724582344e+00  -4.693523999999982e-01  4.85788740e-01   9.73199800e-01   7.91808090e-01
C     7.339844771703780e+00   3.518302289079485e+00  -4.776878999999994e-01 -8.78005820e-01  -3.73637710e+00  -3.21329160e-01
C     7.646821550592161e+00   2.027944382707402e+00  -4.704669000000017e-01  2.04960957e+00   4.89382190e+00   5.83377590e-01
C     8.999248942808759e+00   1.700849751096504e+00  -1.606232999999975e-01  2.45511865e+00  -4.62840970e-01  -3.33782350e-01
C     3.250435750945374e+00   4.668314323513821e+00  -6.149696999999996e-01 -9.67141270e-01   2.03989703e+00   7.74454380e-01
C     3.552692147702396e+00   3.328631106084214e+00  -3.308757000000000e-01  1.16655808e+00  -5.80563330e-01  -7.43470930e-01
C     4.890859206641831e+00   2.944210516774680e+00  -4.344006000000000e-01  2.96628979e+00  -2.87648850e+00   1.37860350e-01
C     5.335328633068588e+00   1.463702410152989e+00  -4.538352000000003e-01 -3.93892656e+00   2.75304955e+00   4.29207790e-01
C     6.646844549852765e+00   1.107497336921429e+00  -5.695733999999995e-01  1.33322528e+00  -1.98177329e+00  -5.04180000e-03
C     1.154286656982807e+01   7.438671295002882e+00  -6.255659999999992e-01 -6.17344649e+00  -3.15624650e-01   1.88534370e-01
C     2.603988506332408e+00   2.314375589631809e+00  -9.257369999999909e-02 -1.59664710e+00  -1.03331289e+00  -2.10908140e-01
C     2.912234179917200e+00   9.278287383331449e-01   6.736080000000000e-02  1.27576289e+00  -1.26880557e+00  -5.57888760e-01
C     4.329519534115466e+00   4.738167776387685e-01  -2.326203000000007e-01 -2.40933430e+00   2.39075011e+00   3.13359830e-01
C     4.951284258664668e-01   3.025086940046708e-01   7.602900000000001e-03 -1.06152652e+00   1.62150423e+00  -5.75714320e-01
C     6.283312019861135e+00   7.596441888366615e+00   1.968087000000000e-01  1.93394093e+00   2.30949340e+00  -1.09205761e+00
