64
Lattice="9.86 0 0 4.93 8.53901048131456 0 0 0 30 " PBC="1 1 1" Properties=species:S:1:pos:R:3:force:R:3 Energy="-515.14999613"
C     4.904272302000000e+00   8.336926599540739e+00  -1.094411999999991e-01  1.80009840e-01   3.18245362e+00  -6.50769800e-02
C     1.207953037000000e+00   5.561826410876736e-01  -1.194375000000001e-01  4.25882800e-02  -6.31040930e-01   3.75420560e-01
C     1.224571376800000e+00   8.451984300792031e-01   3.460861800000000e+00  9.28012250e-01   1.01875859e+00  -5.94069660e-01
C     2.482117650200000e+00   1.586629609343979e+00   3.462216600000000e+00 -1.78201390e-01  -2.76113113e+00  -1.31348320e-01
C     7.393850669100001e+00   8.446118769103215e+00  -9.392670000000081e-02 -8.19834700e-01  -3.33086450e+00  -2.53299280e-01
C     3.674460631000000e+00   5.644876826805216e-01  -2.067000000000263e-02  1.33256212e+00   2.08215068e+00   4.18268590e-01
C     3.695093716300000e+00   8.207286146971913e-01   3.347031000000000e+00  1.22689695e+00   1.49869070e+00   3.49082370e-01
C     4.956417404999999e+00   1.553948254533875e+00   3.393702000000000e+00 -1.13249964e+00  -3.66760330e-01  -2.26748220e-01
C     9.877474828699999e+00   8.402386568490314e+00   8.243400000000001e-03 -2.21964634e+00  -8.01743400e-02  -5.22286330e-01
C     6.131840280700001e+00   5.985319489533384e-01  -3.761310000000151e-02  1.69541232e+00  -1.46175934e+00   5.87972100e-02
C     6.199602588399999e+00   8.641304409946208e-01   3.363702600000000e+00 -1.27789637e+00   4.42740270e-01  -4.74366600e-01
C     7.422480312999999e+00   1.574455029762014e+00   3.303433200000000e+00  4.00819780e-01  -1.00363112e+00   2.23350320e-01
C     1.232005205480000e+01   8.420981886222506e+00  -1.899119999999854e-02 -4.07151310e-01   2.06227080e-01   3.07975730e-01
C     8.633424331699999e+00   5.741722014164136e-01  -5.208179999999984e-02 -6.68451470e-01   2.58319320e-01  -1.15787580e-01
C     8.638509183000000e+00   8.324350003345375e-01   3.316915500000000e+00  7.59504430e-01  -8.87143800e-02   4.54952520e-01
C     9.859548461299999e+00   1.568333327758798e+00   3.459776100000000e+00  1.97048090e-01  -5.30239130e-01  -5.96964050e-01
C     1.197486104700000e+00   1.949277371094654e+00  -9.965099999998728e-03 -5.70525180e-01   1.80813795e+00   2.13351580e-01
C     2.394526192300000e+00   2.715648609048575e+00   1.213692000000000e-01  1.93656528e+00  -1.42400724e+00  -1.85477700e-01
C     2.533408630700000e+00   2.970131785757937e+00   3.558887700000000e+00 -2.20763297e+00   1.10748881e+00   2.23859230e-01
C     3.718288478900000e+00   3.695186338383540e+00   3.582165600000000e+00  7.96529930e-01   7.13241050e-01  -6.65055660e-01
C     3.646155282500000e+00   2.026127099172977e+00   9.915990000000000e-02  1.35554820e+00  -1.60672408e+00  -9.67382620e-01
C     4.941271261799999e+00   2.694220218419329e+00   4.424700000000000e-03 -2.83633753e+00   9.05113970e-01   2.82154780e-01
C     4.917914203600000e+00   2.962661944780137e+00   3.425436600000000e+00  2.01293485e+00   1.26194213e+00   2.61878710e-01
C     6.190135361499999e+00   3.700347145537442e+00   3.338023500000000e+00 -9.41055160e-01  -7.66779250e-01   8.45426400e-02
C     6.135040935300000e+00   1.987183746417470e+00  -1.066412999999997e-01  7.84428540e-01   1.20079446e+00   4.29222130e-01
C     7.359086774100001e+00   2.738837658248692e+00  -1.181048999999987e-01  1.28746571e+00  -1.87216580e+00   5.58894180e-01
C     7.439621972299999e+00   2.991766051929855e+00   3.298733700000000e+00 -1.73356913e+00  -1.53054520e-01   2.34351710e-01
C     8.620014189399999e+00   3.704992281848457e+00   3.373556100000000e+00  2.65672214e+00   3.55230230e-01   8.98555600e-02
C     8.632181577299999e+00   2.032957282875719e+00  -2.253629999999873e-02 -2.69358416e+00  -2.33394665e+00  -1.08650273e+00
C     9.821461894200000e+00   2.681377717437619e+00  -2.056199999999819e-02  1.76523115e+00   1.75570753e+00   7.75705950e-01
C     9.902187193200000e+00   2.990268565661978e+00   3.458165700000000e+00 -9.29082320e-01   5.46107080e-01   2.33363250e-01
C     1.114813598670000e+01   3.687802656021484e+00   3.557456700000000e+00 -7.91745490e-01   8.42514460e-01   1.17972340e-01
C     2.498625065000000e+00   4.110734807079701e+00   1.939614000000000e-01 -2.60925951e+00   1.33377092e+00  -2.10507300e-02
C     3.696932113300000e+00   4.850700094415375e+00   1.199994000000000e-01 -3.87670460e-01  -8.72172720e-01   3.60122460e-01
C     3.711005291300000e+00   5.143669274478935e+00   3.554749200000000e+00 -7.13696570e-01  -1.21885348e+00  -2.09441510e-01
C     4.932058077800000e+00   5.799410715065967e+00   3.422318700000000e+00  1.09026008e+00   1.30019494e+00  -2.95944850e-01
C     4.927270604100000e+00   4.129018792489791e+00   3.754410000000000e-02 -4.87922070e-01  -7.92268560e-01   1.78411320e-01
C     6.139155168199999e+00   4.796242982029699e+00   2.277990000000000e-02  5.66033190e-01   2.89527703e+00  -9.14715150e-01
C     6.156452221099999e+00   5.112404370727253e+00   3.313332900000000e+00  1.80601889e+00  -2.32271000e-02   3.36786840e-01
C     7.435263605799999e+00   5.858249791459666e+00   3.272373300000000e+00 -2.07997190e+00  -7.97337950e-01  -8.71430000e-03
C     7.378111101799999e+00   4.125125089101016e+00  -8.090849999999961e-02  4.05427970e-01   1.13047652e+00   1.59429510e-01
C     8.633149582800000e+00   4.870415901102752e+00  -5.872589999999889e-02 -1.15932313e+00  -1.98897446e+00   4.21670840e-01
C     8.638908118600000e+00   5.132819351592732e+00   3.365786400000000e+00  4.25704640e-01  -3.10172160e-01  -7.37859000e-02
C     9.892645868399999e+00   5.816795286502201e+00   3.442641900000000e+00 -7.29713570e-01   8.49897990e-01  -5.91000490e-01
C     9.819467807799999e+00   4.120166485715280e+00   9.573120000000000e-02  2.07577907e+00   5.08553770e-01  -5.05172900e-01
C     1.110221584680000e+01   4.837864339251944e+00   2.192052000000000e-01 -1.05261252e+00  -3.04927810e-01  -7.42879450e-01
C     1.111115092950000e+01   5.152600567100387e+00   3.572762700000000e+00  8.80662700e-01  -2.01039492e+00  -3.75014440e-01
C     1.233848014830000e+01   5.865447238003152e+00   3.525918900000000e+00  4.24708300e-02   2.97989270e-01   2.43851960e-01
C     1.347114508470000e+01   6.260872076871411e+00   1.134606000000000e-01  2.89501056e+00   3.18781130e-01  -7.99374860e-01
C     4.876026606500000e+00   6.965397311281209e+00  -8.970689999999948e-02 -2.56644450e-01  -1.76745027e+00   1.05280060e+00
C     4.984028165800000e+00   7.229220884604118e+00   3.360847500000000e+00 -1.23079297e+00  -5.55776670e-01  -5.78094900e-02
C     6.170881197200000e+00   7.974211464997378e+00   3.311272200000000e+00  6.17337000e-01  -2.08412000e-03   3.11232640e-01
C     6.108102478599999e+00   6.264653919222900e+00  -4.624740000000216e-02  1.78181636e+00  -9.34855710e-01  -3.96485400e-01
C     7.397679750800000e+00   6.962108682175046e+00  -1.235934000000007e-01 -2.47655503e+00   1.47902534e+00   2.49766860e-01
C     7.396243395299999e+00   7.272818083461330e+00   3.232851900000000e+00  1.30974603e+00  -2.68825610e-01   3.26340750e-01
C     8.657013987299999e+00   7.959629311410577e+00   3.245288100000000e+00 -7.08886530e-01  -5.47214610e-01   1.36220030e-01
C     8.603729709200000e+00   6.266137657683904e+00  -8.929559999999981e-02  7.61343930e-01   4.84628530e-01   2.89593320e-01
C     9.834124352700000e+00   6.974645401191468e+00  -9.797700000000020e-03  5.83539830e-01   2.81714080e-01   4.48243960e-01
C     9.902622906600000e+00   7.235517550932070e+00   3.276990900000000e+00 -1.42260649e+00   5.66585000e-01   9.03720920e-01
C     1.107296245930000e+01   7.998007723232726e+00   3.364258800000000e+00  2.68205372e+00  -8.05675300e-01  -8.74134300e-02
C     1.105240357050000e+01   6.266170703654462e+00   1.500006000000000e-01  8.39333790e-01  -4.01455000e-02  -2.19393420e-01
C     1.230120377740000e+01   7.003477113906873e+00   1.226571000000000e-01 -1.59546048e+00  -2.92080670e-01  -2.35420840e-01
C     1.234826033160000e+01   7.302388762143675e+00   3.422039400000000e+00 -6.94729610e-01  -1.95594199e+00  -1.47522470e-01
C     1.361409561120000e+01   7.902327513073594e+00   3.336213000000000e+00 -1.10227934e+00   3.21509752e+00   4.17463260e-01
