64
Lattice="7.10842262195238 0 0 0 7.10842262195238 0 0 0 7.10842262195238 " PBC="1 1 1" Properties=species:S:1:pos:R:3:force:R:3 Energy="-512.72999708"
C     7.099170297117808e+00   1.442370033824200e-03   7.062704373414112e+00  1.33441313e+00  -1.02959628e+00   2.32478054e+00
C     1.792641610225594e+00   1.784002744215507e+00   3.708428538740900e-02 -9.33506840e-01   2.22803620e-01  -1.10537551e+00
C     4.092745407691200e-03   1.758144932840317e+00   1.749737161649607e+00 -8.33124900e-02   6.24828700e-02   1.60160328e+00
C     1.775345964980419e+00   7.103890147569035e+00   1.733249317550969e+00 -1.97718520e-01  -2.65073150e-01   2.17366922e+00
C     8.699613878954258e-01   8.881464389788146e-01   9.041352007253020e-01  1.14239646e+00  -6.26311690e-01  -1.64318182e+00
C     2.629498718558548e+00   2.684249779936122e+00   9.026886367221321e-01  8.29065930e-01   2.23634680e-01   4.54714540e-01
C     8.391159517889122e-01   2.633039708202475e+00   2.697078208069983e+00  1.10792244e+00   9.49187430e-01  -8.58021900e-02
C     2.648898527983469e+00   8.666534123449826e-01   2.650249839123531e+00  9.28589040e-01   1.74587279e+00  -3.53170150e-01
C     3.527404950710396e+00   1.239964808142320e-02   7.101589293335393e+00  1.19022515e+00   2.33208830e-01  -6.14896300e-02
C     5.329873884123914e+00   1.807472054506152e+00   1.712134672253200e-03  1.98062580e-01  -2.56953260e-01  -7.63816890e-01
C     3.574155837850291e+00   1.812301943339537e+00   1.752858612190501e+00 -1.38408905e+00  -5.80474600e-01   8.71217550e-01
C     5.314533410520371e+00   4.803594778113820e-02   1.720980180108849e+00  1.58309374e+00  -2.10082126e+00   1.60016935e+00
C     4.450021765910794e+00   9.201880804438217e-01   8.873999124352622e-01 -6.14294750e-01   1.13244640e-01  -9.50293870e-01
C     6.253320181159839e+00   2.674880807838736e+00   8.648750271739110e-01 -1.29103851e+00  -3.27878470e-01   1.09832995e+00
C     4.445580068036687e+00   2.704191962006948e+00   2.640790163553513e+00  4.95911980e-01  -2.13028473e+00   5.77735030e-01
C     6.264212061719334e+00   8.333753318494526e-01   2.675769147413557e+00 -2.10806417e+00   2.33745357e+00  -9.31559590e-01
C     7.498675021838000e-04   3.585268648184815e+00   6.024672507354800e-03  3.30541630e-01  -1.26604924e+00  -3.14635100e-01
C     1.816250458852269e+00   5.321147015841793e+00   3.156296028577640e-02 -8.49395510e-01  -1.55304352e+00  -5.55051970e-01
C     7.083998506383037e+00   5.327006204270553e+00   1.774951092103878e+00  3.12849650e-01   9.45055080e-01   5.13767920e-01
C     1.696539788204087e+00   3.586503381193910e+00   1.851921874159726e+00  1.99869670e+00  -1.23778517e+00  -1.89917948e+00
C     8.575792265336477e-01   4.443297055943821e+00   9.306411580749842e-01  8.54671590e-01   4.56633860e-01  -8.64992190e-01
C     2.685720867997331e+00   6.185912644391582e+00   8.922250386254921e-01 -4.11085120e-01   1.33429221e+00  -4.48119790e-01
C     8.837109254323869e-01   6.263659666197533e+00   2.686396168146231e+00 -5.06459990e-01  -2.18220358e+00  -4.56916130e-01
C     2.639798538598023e+00   4.481703792275455e+00   2.674535622836308e+00 -2.33870220e-01  -2.13009240e+00  -4.47139500e-02
C     3.551428717965401e+00   3.535865466396947e+00   7.098228999794467e+00 -6.30488980e-01   1.00693999e+00   2.94989980e-01
C     5.285744512162049e+00   5.322782379549749e+00   7.102977639357306e+00  1.01585812e+00  -5.35097670e-01  -3.66937800e-02
C     3.562483736824025e+00   5.304571738144928e+00   1.764488133765274e+00  1.79841170e-01   1.15476602e+00   1.00778735e+00
C     5.365851245940936e+00   3.536216124884791e+00   1.790577466465198e+00 -5.58708740e-01   1.04663763e+00  -5.16973740e-01
C     4.458385180544355e+00   4.417005844041490e+00   9.047552684304445e-01 -6.33894660e-01   1.90153940e-01  -7.10545620e-01
C     6.202244174276806e+00   6.194894065287725e+00   8.483577542056266e-01 -1.42437210e-01   1.24708937e+00   4.81316250e-01
C     4.475673361945778e+00   6.261904952073786e+00   2.642275894965320e+00 -5.21817500e-01  -8.34360540e-01  -8.04727520e-01
C     6.226716909504489e+00   4.439914015450511e+00   2.687593084346986e+00  1.78048750e-01   5.98624000e-03  -3.64558850e-01
C     7.061799186877682e+00   7.082136597246181e+00   3.612369011833983e+00  2.60158038e+00   1.15083544e+00  -1.48950572e+00
C     1.743794164918156e+00   1.766361345294096e+00   3.568353303549812e+00  9.91641680e-01  -1.10435760e+00  -1.32832540e-01
C     2.976197033077320e-02   1.749949419149040e+00   5.350758998455283e+00 -9.94019210e-01   6.17994190e-01   6.42766190e-01
C     1.801716649047643e+00   7.053627770739086e+00   5.352984503409153e+00  9.63687520e-01   1.84845894e+00  -9.96392990e-01
C     9.004352667515919e-01   8.607998395700912e-01   4.498534191260151e+00 -5.96695680e-01  -3.78910440e-01  -9.86626960e-01
C     2.675365886598324e+00   2.648941107434963e+00   4.441803718519812e+00 -1.36821949e+00   9.62756890e-01  -1.75927484e+00
C     8.943572810745871e-01   2.643665591587530e+00   6.251829900357555e+00  3.14296640e-01   1.32360596e+00  -1.00288183e+00
C     2.693183290063807e+00   9.631977336745842e-01   6.202998449001013e+00 -1.31594445e+00  -3.13329655e+00   1.14329789e+00
C     3.603179314155073e+00   4.043043316732160e-02   3.507877758352125e+00 -1.13333623e+00  -1.03292305e+00   8.56399700e-01
C     5.371740218660475e+00   1.770832258785171e+00   3.554873601735505e+00 -9.21928810e-01  -4.23958700e-02  -1.06199040e-01
C     3.534251783377981e+00   1.812054996737718e+00   5.305235806986089e+00  1.55212513e+00  -6.58998970e-01   6.72112050e-01
C     5.323585062632000e+00   7.090247023118695e+00   5.408229529074590e+00 -3.42530100e-01   1.11930988e+00  -2.71361991e+00
C     4.462373432139533e+00   9.065500029735422e-01   4.445730624427779e+00 -2.36158640e-01  -1.07146390e-01   1.01505750e-01
C     6.225987940764807e+00   2.642034208596239e+00   4.462662958192844e+00  4.24463100e-01   1.50366610e-01  -3.14163690e-01
C     4.417082970426916e+00   2.704089032047411e+00   6.200990532863542e+00  1.26235966e+00  -1.11196133e+00  -1.49129650e-01
C     6.229153961115530e+00   8.918126790293058e-01   6.244678471780705e+00 -5.46546990e-01  -1.65687820e-01  -8.07275200e-01
C     7.101596828263371e+00   3.521640019965576e+00   3.596035278337747e+00 -3.19858390e-01   1.24663057e+00  -4.17386520e-01
C     1.759710776175050e+00   5.315566904085092e+00   3.565848295418523e+00  4.85676310e-01   2.19812116e+00  -2.69647870e-01
C     7.069901864569541e+00   5.326172457381453e+00   5.346716936100872e+00  1.57851883e+00   3.00960500e-01   6.29537990e-01
C     1.788159891932136e+00   3.569891281867874e+00   5.275225894874330e+00 -6.96536150e-01  -9.18019210e-01   2.74114076e+00
C     8.595007753362862e-01   4.478415151634539e+00   4.502960819278303e+00  7.43023880e-01  -1.79675108e+00  -2.57757863e+00
C     2.730052048077377e+00   6.229069228717900e+00   4.365813330111713e+00 -1.63691010e+00  -4.92935420e-01   2.57636487e+00
C     9.678129481448453e-01   6.161987470958316e+00   6.262267979216990e+00 -2.86940434e+00   2.02962745e+00  -1.47822634e+00
C     2.664245825672727e+00   4.415203929991546e+00   6.175679359187829e+00  6.53629430e-01   9.04278840e-01   1.28144035e+00
C     3.526641221784104e+00   3.518776391913109e+00   3.516116491252932e+00  9.52463870e-01   1.98697456e+00   6.38561140e-01
C     5.355775909887801e+00   5.369812414445931e+00   3.530242490851848e+00 -1.17052968e+00  -9.10766130e-01   2.24202840e-01
C     3.573795440823457e+00   5.313591118017864e+00   5.301475167083204e+00 -5.16610970e-01   4.81513810e-01  -5.66962220e-01
C     5.344698144076793e+00   3.563531518318213e+00   5.284944672448846e+00 -8.13062330e-01  -3.77088230e-01   1.25129617e+00
C     4.445965060205786e+00   4.451990230302724e+00   4.386866842974952e+00  2.99159170e-01  -4.14264140e-01   7.50880750e-01
C     6.192932567149962e+00   6.236064414165563e+00   4.450132444050987e+00  2.34693890e-01  -9.74645280e-01   1.57294767e+00
C     4.404849943771706e+00   6.205609159376661e+00   6.213678427482206e+00  6.02244950e-01   2.08574570e-01   6.60606510e-01
C     6.213835452537881e+00   4.425403592356305e+00   6.215193658847886e+00 -7.24752320e-01   8.67141510e-01  -7.93082000e-02
