64
Lattice="7.10842262195238 0 0 0 7.10842262195238 0 0 0 7.10842262195238 " PBC="1 1 1" Properties=species:S:1:pos:R:3:force:R:3 Energy="-512.77843153"
C     7.104590611534010e+00   7.087514545463568e+00   7.101753213561011e+00  1.35012200e-02   1.10829031e+00   4.14401910e-01
C     1.834524933892217e+00   1.758364725267727e+00   3.545183613272600e-02 -2.63812547e+00   3.39480940e-01  -1.40822871e+00
C     7.083633844302631e+00   1.794705540733311e+00   1.796401112780859e+00  1.43506418e+00  -1.37152760e-01  -1.31513263e+00
C     1.773297886255145e+00   1.326929250475400e-02   1.782374417845944e+00 -1.96363150e-01  -9.71378370e-01  -4.81971960e-01
C     8.767246965972247e-01   8.638289517011517e-01   8.656712415915772e-01  3.71841850e-01   1.05499597e+00   1.50373156e+00
C     2.645979667487244e+00   2.680608490449027e+00   8.983327375090484e-01  8.31263340e-01   6.19223900e-02   4.45573690e-01
C     8.939246624739340e-01   2.648974303768598e+00   2.700716156598447e+00 -1.29713861e+00   8.53566270e-01  -3.60087620e-01
C     2.607471849385954e+00   9.228867220072786e-01   2.681632032222081e+00  1.89780003e+00  -5.92328310e-01  -9.71952510e-01
C     3.494327612069656e+00   7.097806546238161e+00   7.103891995758916e+00  2.25809397e+00  -2.34994320e-01   3.11900850e-01
C     5.317705188693415e+00   1.725834095410690e+00   1.656262470460000e-04 -3.87618000e-01   2.74417697e+00   9.40175860e-01
C     3.510321207543524e+00   1.798580057566568e+00   1.810065704667511e+00  1.77898090e+00  -8.01431200e-02  -9.05957800e-01
C     5.359923105812761e+00   1.981465696902380e-02   1.802455000905182e+00 -1.55995887e+00  -6.13177980e-01  -4.92982870e-01
C     4.417893046268691e+00   8.895434572763232e-01   9.454339277156565e-01 -1.96829550e-01  -3.28169390e-01  -1.73358350e+00
C     6.254448003492728e+00   2.679959349295368e+00   8.511732582369561e-01 -5.89170810e-01  -5.67404150e-01   4.11081200e-01
C     4.507513479629508e+00   2.647237005280270e+00   2.652546001798243e+00 -2.20692360e+00   6.61345230e-01  -6.35741400e-02
C     6.214542527335893e+00   9.157640114578123e-01   2.676216053943676e+00  9.73480810e-01  -8.35710820e-01   1.86034180e-01
C     4.988676777870760e-02   3.590675172261135e+00   7.046484659016701e+00 -6.78363530e-01  -1.29656147e+00   2.77031817e+00
C     1.804818693594785e+00   5.316849192441514e+00   2.364858470912080e-02 -8.37679910e-01   2.07915940e-01  -1.08104800e-02
C     7.033071420953893e+00   5.354306741100699e+00   1.750367394399096e+00  2.77453716e+00   2.74170450e-01   7.88359850e-01
C     1.773514408808150e+00   3.559620748529594e+00   1.836504060918077e+00 -9.34671350e-01  -5.22164190e-01  -2.25385652e+00
C     8.606768638587652e-01   4.465469434527447e+00   9.382732581893996e-01  1.01203842e+00  -6.52707890e-01  -1.71919471e+00
C     2.692013528037459e+00   6.199465776211551e+00   8.890445881768516e-01 -8.52342320e-01   4.12859690e-01   6.00912400e-01
C     8.926466391710842e-01   6.230997459437800e+00   2.651619489993952e+00 -1.34072975e+00  -1.55634430e-01  -7.58012500e-02
C     2.667664479363364e+00   4.441661052477828e+00   2.630845906813490e+00  9.43725710e-01  -1.06623420e-01   1.00844878e+00
C     3.517689798431416e+00   3.580718973371111e+00   7.079973788579819e+00  1.90253317e+00  -1.57257823e+00   1.48914702e+00
C     5.311803207560480e+00   5.334182867747705e+00   4.387318441064000e-04  4.08217860e-01  -3.43451060e-01  -2.78332690e-01
C     3.594325134023827e+00   5.302828824002731e+00   1.777677314347101e+00 -8.05425220e-01   1.13540907e+00  -6.82692940e-01
C     5.362293124998495e+00   3.544709197146941e+00   1.749095271087021e+00 -1.99564560e-01   7.84510800e-02  -3.22801210e-01
C     4.461969176145132e+00   4.411276952999352e+00   8.593160985166186e-01 -6.89280720e-01   8.31707720e-01   9.01476530e-01
C     6.197132009981179e+00   6.232311664611785e+00   8.780885185610979e-01 -1.00339340e-01   1.84570710e-01  -5.14866300e-02
C     4.450994411377888e+00   6.224634497097959e+00   2.677734555183760e+00 -3.56522490e-01   4.80673360e-01  -3.95340150e-01
C     6.213377883373832e+00   4.490766249189467e+00   2.634621971993460e+00 -5.29487070e-01  -1.79598169e+00   1.17725756e+00
C     4.872823706010000e-03   1.902398712100120e-02   3.579557954704586e+00 -7.08467510e-01  -1.45932896e+00  -5.95830300e-01
C     1.747107329617112e+00   1.744803205509065e+00   3.547941894501839e+00 -1.22483730e-01   9.83197030e-01   1.78982602e+00
C     3.295350991870079e-02   1.720568389186473e+00   5.376711351851320e+00 -2.55764340e-01   1.34620996e+00  -6.99973360e-01
C     1.807699524029992e+00   7.030604442883622e+00   5.328771012354420e+00 -8.57903550e-01   1.85621592e+00   1.37339920e-01
C     9.090357472795301e-01   7.853720117281402e-01   4.484181290811204e+00 -6.23940610e-01   3.06359938e+00  -5.98036960e-01
C     2.647929721064589e+00   2.694576256560422e+00   4.397098706494179e+00  7.05619150e-01  -1.59495757e+00   4.50330670e-01
C     9.579210804795321e-01   2.677736545542095e+00   6.247731183874864e+00 -9.44622480e-01  -6.99590200e-01  -1.44671205e+00
C     2.633064161176287e+00   8.542263257522461e-01   6.186258113730913e+00  1.35132166e+00   9.84314170e-01   1.27262953e+00
C     3.549975756381873e+00   8.073127979028059e-02   3.534991841256949e+00  5.36087490e-01  -2.00313892e+00   6.70347820e-01
C     5.351428967287219e+00   1.770454232870240e+00   3.549048818072225e+00 -1.66061710e-01   2.50952740e-01   1.23436947e+00
C     3.508322674523912e+00   1.781282635215738e+00   5.318934163880186e+00  1.39279403e+00   5.15736710e-01   1.30651180e-01
C     5.296477732728666e+00   7.106869500741756e+00   5.375356131078817e+00  4.37196230e-01   1.56486270e-01  -1.22300111e+00
C     4.468545675500478e+00   9.205959617337574e-01   4.477454874822802e+00 -1.68038455e+00  -4.13271070e-01  -1.25567763e+00
C     6.224232800135703e+00   2.611528270754057e+00   4.469047387968998e+00  8.16280880e-01   2.11305539e+00  -4.08954090e-01
C     4.416538536338450e+00   2.678844535375874e+00   6.239988192367576e+00  1.03600120e-01  -8.34626120e-01  -8.81561520e-01
C     6.195959191333106e+00   8.979498778667353e-01   6.236704385454041e+00  8.02930130e-01  -1.70601617e+00   9.55229800e-02
C     7.095360964519976e+00   3.587780338233367e+00   3.578999232686654e+00  3.70731770e-01  -1.18617429e+00  -4.43936950e-01
C     1.764633998597436e+00   5.315720019508327e+00   3.494162127991062e+00  8.40987030e-01   1.33709548e+00   1.37511945e+00
C     7.108365468282135e+00   5.380065461064567e+00   5.369261511692882e+00  2.35513190e-01  -1.07216764e+00  -1.38194263e+00
C     1.813543642602799e+00   3.571612799657986e+00   5.304292874725546e+00 -9.98935160e-01  -3.11079480e-01   2.63449280e-01
C     8.919296836656310e-01   4.470185730767365e+00   4.436668522934898e+00 -1.93679760e-01   1.58853700e-02   5.15101110e-01
C     2.699045748366973e+00   6.265354385234368e+00   4.393383489411836e+00 -7.32833310e-01  -2.59344260e+00   4.37046770e-01
C     9.143357161007758e-01   6.232852260152037e+00   6.251459835875958e+00 -3.55306660e-01  -1.56943903e+00  -6.03668290e-01
C     2.701247226852387e+00   4.428086879726902e+00   6.200128565536641e+00 -1.81620362e+00   1.36881374e+00  -5.70850820e-01
C     3.576674209816105e+00   3.539015634965226e+00   3.497045872879543e+00 -1.00166690e-01   5.97027100e-02   1.32077344e+00
C     5.306258851169559e+00   5.319918324991925e+00   3.538564392297308e+00  7.19075260e-01   6.49606030e-01   1.03980031e+00
C     3.551743621087467e+00   5.313968006585175e+00   5.272650513359104e+00  6.68084730e-01   3.49769150e-01   9.31674210e-01
C     5.330749144201114e+00   3.569458947604126e+00   5.316794670840019e+00  5.72104780e-01  -1.74252362e+00   1.25406812e+00
C     4.458097502680923e+00   4.391737818491080e+00   4.425965228827511e+00 -7.04642320e-01   1.65240358e+00  -7.68291090e-01
C     6.178017745892904e+00   6.232937632307704e+00   4.463999341645404e+00  1.00769224e+00  -2.03433700e-01  -2.13828050e-01
C     4.402827952957447e+00   6.191743114792957e+00   6.220878477669778e+00  5.45358100e-01   7.65794080e-01  -1.96961480e-01
C     6.252349952556434e+00   4.458752401656904e+00   6.227477013135245e+00 -1.03772628e+00   3.08798310e-01  -1.04699583e+00
