64
Lattice="7.10842262195238 0 0 0 7.10842262195238 0 0 0 7.10842262195238 " PBC="1 1 1" Properties=species:S:1:pos:R:3:force:R:3 Energy="-513.18808889"
C     7.065845656454117e+00   7.098955125165101e+00   8.843019907732400e-03  2.08631322e+00   9.98803390e-01  -2.53040170e-01
C     1.791097234327172e+00   1.823215788924928e+00   7.108392622456543e+00 -1.30701840e-01  -2.51842966e+00   1.00209170e-01
C     1.327569008511200e-02   1.785996088086608e+00   1.788086675179150e+00 -7.27061660e-01   3.86045310e-01   4.81413040e-01
C     1.738624493483535e+00   7.101639123377960e+00   1.790196526096992e+00  1.26027231e+00   6.41604900e-01  -8.05786300e-01
C     8.738099589861199e-01   9.006634471176940e-01   9.123171373293744e-01  1.80532260e-01   2.88399200e-02  -9.69700880e-01
C     2.709158332554638e+00   2.647268708845155e+00   8.923805709124176e-01 -1.59942419e+00   1.55825991e+00  -8.61523520e-01
C     8.987657115308325e-01   2.691017566944172e+00   2.668852083530487e+00  1.10757100e-01  -1.42961771e+00  -6.36101000e-02
C     2.653077427473314e+00   9.331347216458539e-01   2.670468467750049e+00 -1.38365380e-01  -2.52362421e+00   3.47188810e-01
C     3.559503388472138e+00   7.086514674737838e+00   7.082820214249545e+00 -1.45254080e-01   7.79627330e-01   9.73663070e-01
C     5.338063142403285e+00   1.796632207600235e+00   1.350088491371360e-02  2.33679340e-01  -4.69920090e-01   5.25368920e-01
C     3.557889705453171e+00   1.795322409648274e+00   1.764473419330451e+00  1.26264650e-01  -8.31675020e-01   1.16369708e+00
C     5.333054547825233e+00   7.057787690740537e+00   1.811360432763518e+00  6.90326520e-01   3.12011440e+00  -1.45975258e+00
C     4.471179132828509e+00   9.210135815626823e-01   9.057876246475471e-01 -9.75910250e-01  -1.81723569e+00  -3.94261830e-01
C     6.223192482485267e+00   2.687341517270465e+00   9.133828320485647e-01 -2.51884590e-01  -6.35771410e-01  -8.85830190e-01
C     4.419136025048025e+00   2.657203440298867e+00   2.686857433690042e+00  1.23444506e+00   6.77238600e-01  -1.44967344e+00
C     6.236482744836749e+00   9.155477732417121e-01   2.696059215687407e+00 -4.97101290e-01  -1.48077350e+00  -6.31663970e-01
C     7.096982822224955e+00   3.521783610102500e+00   7.090413289123778e+00  4.36161840e-01   1.12099816e+00   3.67425590e-01
C     1.759900713227457e+00   5.328669575163634e+00   5.571581649556000e-04  5.11874300e-02  -4.55136300e-02  -7.40070120e-01
C     7.099584647072327e+00   5.316007341950628e+00   1.778627923704073e+00  2.73865370e-01   3.50472300e-01  -5.78477730e-01
C     1.767942258484784e+00   3.544704647756464e+00   1.719090974629132e+00  5.88922010e-01   3.01661050e-01   2.35935183e+00
C     8.515959961301676e-01   4.430218126996831e+00   8.737369554858125e-01  1.25327207e+00   5.97495500e-02  -3.71370430e-01
C     2.665927323043488e+00   6.211552511529243e+00   8.719821702778394e-01 -4.19107540e-01   2.09277900e-01   3.79671280e-01
C     8.473963400462716e-01   6.211539929621205e+00   2.646561634047144e+00  1.78291405e+00   7.63218660e-01   1.11282033e+00
C     2.658282783189488e+00   4.433985093395847e+00   2.653909468340985e+00  7.13167250e-01   5.27708390e-01  -2.58991700e-01
C     3.554103617397307e+00   3.559344159805449e+00   5.767205440058400e-03 -3.97792900e-02   9.50057300e-02  -7.74856800e-01
C     5.360065345349387e+00   5.333131460957981e+00   7.106490337479205e+00 -4.09999210e-01   3.18464480e-01  -7.92459110e-01
C     3.554008577786878e+00   5.335324338252025e+00   1.742319238308732e+00 -4.84775510e-01   1.44882690e-01   9.02719570e-01
C     5.318649613722707e+00   3.602481338138015e+00   1.764136337929810e+00  4.63761120e-01  -1.59958232e+00   7.01805750e-01
C     4.437466159037088e+00   4.478002152280316e+00   8.613129965990289e-01  2.83154270e-01  -6.51380360e-01   5.11820720e-01
C     6.243371161776660e+00   6.238123439861671e+00   8.699333807103029e-01 -1.45191333e+00  -1.70689327e+00   1.61632090e+00
C     4.429928600943518e+00   6.229219642940539e+00   2.637378191780140e+00 -6.76921310e-01  -8.65088370e-01   1.63197204e+00
C     6.250494014494579e+00   4.437594608233831e+00   2.661419659007468e+00 -1.98031684e+00   5.51013700e-01  -1.67441100e-01
C     6.543374105936200e-03   6.055736314204200e-03   3.566040791503073e+00 -6.14087710e-01   7.94527000e-02   5.02842830e-01
C     1.781817757270572e+00   1.740200288609936e+00   3.597370169021556e+00 -3.34550500e-01   2.19636882e+00  -1.47000384e+00
C     1.376211944499860e-02   1.792955304915814e+00   5.330245014868904e+00 -1.38914914e+00  -7.39602940e-01   7.24488830e-01
C     1.728998196487304e+00   7.101441722481803e+00   5.340457401310153e+00  1.19756388e+00   3.10512450e-01   1.10439584e+00
C     8.779325597688151e-01   9.223983022890585e-01   4.510615808513554e+00  3.75860890e-01  -2.06984915e+00  -2.74698844e+00
C     2.677786304500434e+00   2.636983603240503e+00   4.411974715763732e+00  3.18799070e-01   6.79534210e-01   1.64225113e+00
C     9.042321596098388e-01   2.645869558020860e+00   6.205811109663295e+00 -5.37718940e-01   1.59190680e+00   2.84302320e-01
C     2.626257633264959e+00   8.663203116610093e-01   6.233727449145011e+00  2.07316967e+00   4.31519320e-01  -7.74773450e-01
C     3.532892866225715e+00   1.500147292879560e-02   3.587870970621771e+00  5.29122700e-01  -3.44109430e-01  -1.08102605e+00
C     5.317881477574391e+00   1.767701496210645e+00   3.559565871506968e+00  9.22627670e-01   9.78687830e-01  -7.73506750e-01
C     3.600163494774312e+00   1.740405935276333e+00   5.318413543007497e+00 -1.67440428e+00   1.73442440e+00   1.03253301e+00
C     5.313336138898483e+00   2.107149717246600e-02   5.333445653237785e+00  1.55864190e+00  -1.27704076e+00  -4.35466390e-01
C     4.491051510189207e+00   9.146728685856422e-01   4.428847765284147e+00 -2.13396753e+00  -1.86386705e+00   9.13878910e-01
C     6.192130594909973e+00   2.663267066962180e+00   4.420270031708593e+00  1.67336453e+00   2.60883090e-01   1.16584517e+00
C     4.459248924976911e+00   2.688480286574189e+00   6.253901365793250e+00 -1.64306480e-01  -9.01332670e-01  -1.25480531e+00
C     6.201557429567487e+00   8.564228994260523e-01   6.243735255183257e+00  2.61452310e-01   1.97663931e+00  -7.04951830e-01
C     3.801228996045000e-03   3.543380348622358e+00   3.537173913748610e+00  7.09952600e-02   9.83936430e-01   6.71142630e-01
C     1.798689171853784e+00   5.372070333806948e+00   3.546295299486142e+00 -1.47572513e+00  -1.97794739e+00  -9.71389300e-02
C     1.004064695075000e-02   5.321863402673435e+00   5.316927385090334e+00 -2.74633520e-01   5.83701570e-01   1.00318815e+00
C     1.778110785958468e+00   3.569793754309528e+00   5.304357561371388e+00 -3.07652800e-02  -1.25355168e+00   2.16795000e-03
C     9.007466867465742e-01   4.480924993493208e+00   4.455468807996048e+00 -3.04182790e-01  -1.60158605e+00  -1.53751825e+00
C     2.615044309834587e+00   6.174843266519265e+00   4.503892093725749e+00  2.22008359e+00   2.43499187e+00  -2.18428573e+00
C     8.913797050075216e-01   6.239460178735363e+00   6.223102418770671e+00 -1.43101290e+00  -9.78360590e-01   5.26612690e-01
C     2.630420041214326e+00   4.421664988563542e+00   6.174628307819236e+00  1.65718864e+00   4.57187420e-01   2.17356200e+00
C     3.579552694471848e+00   3.527944622155707e+00   3.560807997275586e+00 -1.25314031e+00   4.53217090e-01  -4.42468220e-01
C     5.299150855054917e+00   5.328012756913545e+00   3.530731194906973e+00  1.69045178e+00  -2.47628640e-01   7.85478230e-01
C     3.566077399879566e+00   5.297713816338057e+00   5.328748762991620e+00 -3.15076040e-01   2.15721350e-01  -2.79444600e-02
C     5.367826392250129e+00   3.564858945158272e+00   5.354042023442330e+00 -1.19147232e+00  -6.67402850e-01  -1.04038188e+00
C     4.481938938895725e+00   4.405905971036133e+00   4.435861645883302e+00 -1.51677398e+00   1.02526346e+00   9.51335700e-02
C     6.225465045196880e+00   6.195445749967264e+00   4.456944018942376e+00 -7.30165500e-01   1.26660360e+00  -9.64465650e-01
C     4.480615777109238e+00   6.207163842487881e+00   6.191019264117563e+00 -1.71105475e+00   2.13536380e-01   7.55183050e-01
C     6.228792995414886e+00   4.436715296355738e+00   6.209814360030200e+00  6.88577290e-01  -1.41590300e-02   4.21572540e-01
