32
Lattice="9.86 0 0 4.93 8.53901048131456 0 0 0 30 " PBC="1 1 1" Properties=species:S:1:pos:R:3:force:R:3 Energy="-254.8264042"
C     4.935328541200000e+00   8.474548806765641e+00  -4.420659000000029e-01  1.26962263e+00   2.20379520e-01   2.02688200e-02
C     1.264439843100000e+00   6.781691516127528e-01  -4.472613000000010e-01 -2.23807130e-01   1.15526640e-01  -1.26908560e-01
C     7.451150629399999e+00   8.482034957253457e+00  -5.072906999999987e-01 -1.88712990e+00   2.80350652e+00   4.39424840e-01
C     3.712752976300000e+00   7.237075237223832e-01  -3.650894999999998e-01  4.98179150e-01  -3.13919015e+00   1.21315743e+00
C     9.860636413700000e+00   8.492994008693595e+00  -1.500938999999981e-01  7.75275040e-01   3.54031900e-02  -3.08011950e-01
C     6.194786422100000e+00   6.166117666228520e-01  -1.452422999999996e-01 -2.54745370e-01   1.83028681e+00  -1.33913794e+00
C     1.236661210870000e+01   8.425743665416677e+00  -2.186613000000008e-01 -7.61741970e-01   2.41081036e+00   7.00222410e-01
C     8.653836553000001e+00   6.447829014875247e-01  -4.535934000000026e-01 -3.57574320e-01  -4.46344100e-01   1.07496259e+00
C     1.256301892100000e+00   2.124695800407180e+00  -2.140488000000005e-01 -1.78437320e-01  -6.10528250e-01   8.88345610e-01
C     2.481839598200000e+00   2.780410599281515e+00   1.733979000000000e-01 -1.24281182e+00   1.23670338e+00  -1.39361400e+00
C     3.701379318400000e+00   2.086389372443376e+00  -5.957159999999817e-02 -8.42342180e-01   1.08459888e+00  -1.16311820e-01
C     4.896740741000000e+00   2.809223953124389e+00  -1.461933000000002e-01  3.33054563e+00  -4.59019290e-01   1.19792000e-03
C     6.165517209299999e+00   2.085269651999134e+00  -3.265653000000022e-01 -1.05394190e-01  -7.56413340e-01   1.14457590e-01
C     7.404380163099999e+00   2.803859661350748e+00  -5.134433999999999e-01 -1.88533830e-01  -3.21088370e-01   1.53470673e+00
C     8.666713959499999e+00   2.063588421269575e+00  -4.210616999999992e-01 -1.15224979e+00   2.08273028e+00  -5.88279940e-01
C     9.855898683700000e+00   2.865343781630730e+00  -2.231352000000015e-01  1.09023873e+00  -2.24634306e+00   1.28139880e-01
C     1.231813670050000e+01   4.264930977475969e+00   3.828396000000000e-01  2.40575423e+00  -3.69335741e+00  -6.20142040e-01
C     3.701559164800000e+00   4.906240807230963e+00   2.326011000000000e-01  2.00018527e+00   1.79626468e+00   1.68805790e-01
C     4.976412794800000e+00   4.218902039214263e+00  -7.043129999999920e-02 -2.16224374e+00   9.49467810e-01   2.79831820e-01
C     6.168521452699999e+00   4.983641557655560e+00  -3.150972000000003e-01  4.21509650e-01  -1.87392221e+00  -7.08399190e-01
C     7.402289350100000e+00   4.244775326358767e+00  -4.260809999999999e-01  9.00999530e-01  -4.97026150e-01   2.92475040e-01
C     8.667797721399999e+00   4.952161043889259e+00  -2.293091999999994e-01 -2.07722072e+00   7.39127960e-01  -5.32285100e-02
C     9.876041332600000e+00   4.259270211258462e+00   2.276070000000000e-02  3.09478360e-01  -1.33859420e-01  -1.17993390e-01
C     1.114064307690000e+01   4.952928615541307e+00   3.581475000000000e-01 -3.85788879e+00  -9.51142170e-01  -1.08626581e+00
C     3.742936358999999e+00   6.365376158900158e+00   2.411967000000000e-01  1.37452640e-01  -2.73268660e-01  -2.48759708e+00
C     4.942405654800000e+00   7.038853209644255e+00  -3.028103999999985e-01 -1.44136246e+00   9.34936660e-01   8.01163430e-01
C     6.155956953300000e+00   6.379661154922255e+00  -5.394852000000014e-01 -8.26050770e-01  -8.12826440e-01   1.76214954e+00
C     7.365330027499999e+00   7.089187687770187e+00  -5.238566999999996e-01  1.68861778e+00  -3.42413330e-01   1.17731020e-01
C     8.553841215099999e+00   6.393701166733680e+00  -2.332761000000012e-01  3.34792513e+00  -1.15164634e+00   4.27005500e-02
C     9.861139520199998e+00   7.062926217209262e+00  -2.683529999999834e-02 -2.09043643e+00   4.32890000e-02  -3.16443700e-01
C     1.105633647800000e+01   6.318251580203763e+00   2.459736000000000e-01  1.95308460e+00   3.90663034e+00  -9.54727900e-02
C     1.235493446700000e+01   7.098835317980806e+00   1.910946000000000e-01 -4.78897630e-01  -2.48127332e+00  -2.21934280e-01
