64
Lattice="7.10842262195238 0 0 0 7.10842262195238 0 0 0 7.10842262195238 " PBC="1 1 1" Properties=species:S:1:pos:R:3:force:R:3 Energy="-504.49909254"
C     7.086340305130970e+00   7.075162168392567e+00   3.576176335895800e-03  2.87730813e+00   1.94258702e+00  -1.56036830e-01
C     1.826805115842671e+00   1.818891308939824e+00   3.944278892849880e-02 -2.26471483e+00  -2.69360339e+00  -1.10162144e+00
C     7.052348254667487e+00   1.749977284165710e+00   1.767925838028532e+00  1.89882545e+00   2.65776430e-01   2.00906596e+00
C     1.742912222923692e+00   7.058721097714769e+00   1.892524188985999e+00  4.75379060e-01   1.61939455e+00  -3.97142273e+00
C     9.287832296547948e-01   9.180933704661602e-01   9.257929295112394e-01 -2.47344963e+00  -1.75975782e+00   1.51016460e-01
C     2.613660228866248e+00   2.697845491207586e+00   8.840174406157614e-01  3.09135606e+00   6.25860800e-02   3.72603070e-01
C     8.352414349556549e-01   2.680560792933246e+00   2.701547273371177e+00  3.11971010e-01   5.55898320e-01  -1.98563216e+00
C     2.640999577683898e+00   9.584061592391208e-01   2.585688656940774e+00 -1.33790220e-01  -3.01028721e+00   4.60682874e+00
C     3.589451812728233e+00   7.035895668345045e+00   7.029517422896571e+00 -2.62203939e+00   1.54962618e+00   2.10800132e+00
C     5.397697903373477e+00   1.819832464094713e+00   6.994366273040671e+00 -4.32403055e+00  -3.07077060e+00   3.05683393e+00
C     3.553162177905514e+00   1.767054771920677e+00   1.767036929779901e+00 -3.18731810e-01   3.51424000e-02  -1.06303026e+00
C     5.400633113241727e+00   7.086158045174994e+00   1.712472819917233e+00 -9.70346290e-01   2.10580106e+00   9.77629980e-01
C     4.410866299424595e+00   8.510554716741427e-01   8.565149534989814e-01  1.65003647e+00   8.18333500e-01  -1.77795136e+00
C     6.125814982940375e+00   2.537362187927156e+00   9.463085480348215e-01  2.28505617e+00   4.92723686e+00  -3.05888931e+00
C     4.424678391080612e+00   2.585720005084528e+00   2.695677848813843e+00 -2.26692430e-01   2.99086218e+00  -4.82805480e-01
C     6.191340067230403e+00   9.501308890460478e-01   2.697905912799856e+00  1.82727050e+00  -2.86008142e+00   8.41443300e-02
C     7.061035457951389e+00   3.522140666170703e+00   2.817167402222680e-02  6.85635470e-01   1.91149320e-01  -9.87655590e-01
C     1.686826697367666e+00   5.424370268896693e+00   7.085161017818312e+00  2.97601555e+00  -2.90374911e+00   6.04306820e-01
C     7.032840255050290e+00   5.170608040385612e+00   1.759705302689633e+00  1.07586801e+00   3.68300961e+00   1.76900699e+00
C     1.724893153508481e+00   3.581553999776282e+00   1.705208865010308e+00  5.60345530e-01  -1.83590605e+00   2.64272982e+00
C     8.125486487520194e-01   4.382531273850561e+00   8.546130950270003e-01  7.82528430e-01   2.45991266e+00   5.60865140e-01
C     2.637669139517976e+00   6.200311607419105e+00   8.980690861140727e-01  1.75063910e-01  -1.20957620e-01  -4.61265700e-01
C     8.768959384981405e-01   6.112557277164491e+00   2.755715159757006e+00 -5.86017770e-01   2.65550341e+00  -2.30589011e+00
C     2.676696156807431e+00   4.351212772218686e+00   2.620913165718112e+00  9.15467210e-01   3.11812885e+00   1.48315690e-01
C     3.489745593933030e+00   3.613893128727937e+00   7.095856421576590e+00  2.65898833e+00  -2.47586844e+00   1.41686154e+00
C     5.358121547183948e+00   5.358893379712027e+00   1.720693213087680e-02  1.61561845e+00   5.84859320e-01  -2.74555602e+00
C     3.543479440033681e+00   5.330565746897518e+00   1.723259709074631e+00  1.92441375e+00  -8.53437630e-01   4.72902460e-01
C     5.279523718274608e+00   3.540773618963378e+00   1.768896990726876e+00 -1.01265698e+00  -3.25395327e+00  -5.81261600e-02
C     4.535650748886254e+00   4.477953601753821e+00   8.464861065297805e-01 -4.90221437e+00  -1.37195375e+00   5.72184550e-01
C     6.295484500772631e+00   6.205192250389997e+00   8.490789747646518e-01 -2.04587193e+00  -1.05566302e+00   2.22935452e+00
C     4.550972669506759e+00   6.245499494593314e+00   2.525828487889302e+00 -4.47082407e+00  -2.12887990e+00   5.04436847e+00
C     6.068090823801986e+00   4.319205322266481e+00   2.678429545663318e+00  5.60752322e+00   3.15007528e+00   5.46980490e-01
C     1.422608618940600e-02   8.560531192813599e-02   3.676756748504812e+00  3.83787290e-01  -1.45591609e+00  -3.77767112e+00
C     1.797888905635225e+00   1.880649497915063e+00   3.529953106966988e+00 -5.28675930e-01  -2.05869275e+00  -5.50790710e-01
C     5.478589264841160e-02   1.807369337799293e+00   5.392442220025154e+00 -1.55593838e+00   1.68739240e-01  -8.29051080e-01
C     1.650436478364874e+00   1.307704521499610e-01   5.251303138304755e+00  4.87741059e+00  -5.52439731e+00   3.56410441e+00
C     9.247924190274744e-01   1.033787497997137e+00   4.463402020892646e+00 -1.76274210e+00  -6.57875970e-01  -2.43842513e+00
C     2.706073632558688e+00   2.644007577799778e+00   4.420279628079131e+00 -3.61680900e-01   1.71305704e+00   6.34049550e-01
C     9.145265061638965e-01   2.709681938964827e+00   6.263404260572797e+00 -8.76157890e-01  -1.64101680e+00   4.30096600e-02
C     2.557490895007531e+00   7.665717266669905e-01   6.247289537577483e+00  4.36959016e+00   4.61242187e+00  -1.60445997e+00
C     3.527121893321668e+00   7.086361132809246e+00   3.572862318186130e+00  2.21014178e+00   1.39340198e+00  -2.14265333e+00
C     5.344946228026231e+00   1.810944092450664e+00   3.628714758564446e+00 -8.54696380e-01  -1.48434024e+00  -2.40414891e+00
C     3.596543459470850e+00   1.750259630712177e+00   5.248411716319844e+00 -1.86513497e+00   3.00293700e-02   2.51747420e+00
C     5.359763663893395e+00   6.772627843853821e-02   5.292147850342371e+00  1.54932326e+00  -3.34840210e+00   1.88069793e+00
C     4.524699939503239e+00   8.715206914813490e-01   4.451764324631860e+00 -3.74405328e+00   6.99948080e-01  -1.49509973e+00
C     6.144918228973589e+00   2.668576489985510e+00   4.536025789263685e+00  3.13044691e+00   3.44349350e-01   3.14897890e-01
C     4.354274085504215e+00   2.715997701378471e+00   6.154642764370427e+00  1.39430764e+00  -2.23016473e+00   3.53159383e+00
C     6.272088265066520e+00   8.109845114387146e-01   6.201627589698746e+00 -8.69561190e-01   4.55144196e+00   7.29517000e-01
C     7.064717834121227e+00   3.512189727513417e+00   3.590509901435220e+00 -9.53410430e-01   1.52193301e+00   8.50013590e-01
C     1.851424924334362e+00   5.283504008436451e+00   3.485884298765845e+00 -2.51825878e+00  -1.01050977e+00   3.37531855e+00
C     6.603582445527600e-02   5.378922142370366e+00   5.406562603970200e+00 -1.63898683e+00  -8.35625320e-01  -3.47199864e+00
C     1.801096012668690e+00   3.543088334621129e+00   5.366541118356207e+00 -1.14964580e-01   5.27576320e-01  -1.08890740e+00
C     8.979309694625659e-01   4.457847286204699e+00   4.477035264635544e+00  5.73508490e-01  -1.07729817e+00  -9.87615170e-01
C     2.624130437795924e+00   6.163701169483546e+00   4.429770651792902e+00  2.43465943e+00   2.15816133e+00  -5.77444470e-01
C     8.819130631833366e-01   6.305045187028078e+00   6.192079201014431e+00 -4.39662720e-01  -9.69593860e-01   8.90380710e-01
C     2.676438689740135e+00   4.410642241943613e+00   6.237298223079716e+00 -9.87722870e-01   3.87335822e+00  -1.29118397e+00
C     3.600381154674936e+00   3.559635178627512e+00   3.576855403508688e+00 -8.55683210e-01  -1.26205007e+00  -1.13728125e+00
C     5.351388449278285e+00   5.329448018524749e+00   3.551994121900595e+00  8.39175990e-01   7.02745140e-01  -6.42667930e-01
C     3.659850929156117e+00   5.311119945978247e+00   5.333061087574043e+00 -3.54362379e+00   6.48224050e-01  -5.94101200e-01
C     5.291588986155986e+00   3.559034588000348e+00   5.488257359362396e+00  2.18672117e+00   2.20527643e+00  -7.06437766e+00
C     4.527047709326173e+00   4.453990256091087e+00   4.449193137085980e+00 -2.49366291e+00   1.15598190e-01   2.35808060e-01
C     6.314350183321885e+00   6.294231783454308e+00   4.517516736277277e+00 -2.27177847e+00  -1.80984860e+00  -2.06646229e+00
C     4.525401682984286e+00   6.246504341214878e+00   6.140981229105502e+00 -1.86196823e+00  -1.05258348e+00   2.29017047e+00
C     6.248463351404723e+00   4.500098897247264e+00   6.182039335990170e+00 -8.96884440e-01  -2.20524623e+00   4.11056570e+00
