64
Lattice="7.10842262195238 0 0 0 7.10842262195238 0 0 0 7.10842262195238 " PBC="1 1 1" Properties=species:S:1:pos:R:3:force:R:3 Energy="-510.97954674"
C     7.402789509116821e-02   3.073312302911760e-02   7.065634678470755e+00 -1.76650619e+00  -1.85184310e-01   6.19479430e-01
C     1.838605523897228e+00   1.798257406263845e+00   7.087353824028130e+00 -1.40982755e+00  -8.44562120e-01   4.70320030e-01
C     7.088621966623537e+00   1.778908066639527e+00   1.710700192568484e+00  9.38824170e-01   2.17243000e-03   9.84296300e-01
C     1.766593150955734e+00   1.428089212780620e-02   1.817340677629498e+00  2.49343710e-01  -1.18918642e+00  -2.37388115e+00
C     9.615529868487686e-01   8.865685113256270e-01   8.395567450755784e-01 -2.13795478e+00   8.55929840e-01   1.58438848e+00
C     2.658568470694586e+00   2.677718490148639e+00   9.038591095907411e-01  3.72073730e-01   2.74914770e-01   2.14853340e-01
C     8.625576103155648e-01   2.659238368442295e+00   2.674208919732693e+00 -8.31278930e-01  -6.32996220e-01   2.80979300e-01
C     2.678866642570222e+00   8.718299789495452e-01   2.626774344505207e+00 -6.83162920e-01   8.77010190e-01   1.95594304e+00
C     3.517863030690666e+00   7.079047063522850e+00   7.094184094071009e+00  1.47561373e+00   4.26293010e-01   4.36857380e-01
C     5.264587287412786e+00   1.705914731376474e+00   7.058776330158527e+00  9.03593590e-01   2.11262788e+00   1.34213621e+00
C     3.543825620215275e+00   1.761887517349747e+00   1.778464643236492e+00  8.85619400e-01   8.07450000e-04  -1.01477823e+00
C     5.411900887189368e+00   2.452014840655900e-02   1.757798894827175e+00 -2.87324188e+00  -1.82368298e+00  -4.63998500e-02
C     4.431106893077009e+00   8.390374748031874e-01   9.141228899275329e-01 -3.42368440e-01   6.20471040e-01  -1.70594503e+00
C     6.195555290759837e+00   2.609927382895807e+00   8.265778316348513e-01  1.42162000e-02   1.76041342e+00  -8.07923900e-02
C     4.470400476214714e+00   2.625359768403827e+00   2.608784846128094e+00 -9.55790290e-01   1.34548494e+00   2.15752248e+00
C     6.177540486398198e+00   9.090666689179270e-01   2.623096730978524e+00  3.81719875e+00   1.77453400e-02   9.95463530e-01
C     7.104528128499180e+00   3.565306633614880e+00   7.077703358394991e+00  5.71370950e-01  -1.12481785e+00   1.16371092e+00
C     1.768715086192031e+00   5.292878667271934e+00   1.101331374311246e-01 -3.34747890e-01   2.59399175e+00  -2.70488970e+00
C     7.074948418124384e+00   5.281129653112918e+00   1.784550448178378e+00  7.66582830e-01   1.44636904e+00  -6.56799150e-01
C     1.785785678777056e+00   3.527430967537185e+00   1.858772971880882e+00 -1.17394106e+00   1.00558370e-01  -2.71654088e+00
C     8.924327467344484e-01   4.421770904060580e+00   9.244225677985558e-01 -7.76441630e-01  -7.47616760e-01   5.66085070e-01
C     2.634932396809276e+00   6.235456857284231e+00   8.748140947654212e-01  1.48283004e+00  -8.57085450e-01   2.79290301e+00
C     8.528854639934356e-01   6.197488923880930e+00   2.698403289130578e+00  1.12034000e+00   2.72243330e-01  -2.16967296e+00
C     2.659609143766154e+00   4.409910998508694e+00   2.669683484640123e+00  1.38527509e+00   1.71288922e+00   3.84426220e-01
C     3.476999765670012e+00   3.652195655583961e+00   3.172339738430980e-02  3.01873384e+00  -1.64438349e+00   5.46484720e-01
C     5.380607193952437e+00   5.381236289354307e+00   7.106037530958312e+00 -2.24402928e+00  -1.32598534e+00   1.83172890e-01
C     3.646345565936153e+00   5.323048945397999e+00   1.863411075471980e+00 -2.53266538e+00   1.57930199e+00  -1.78082822e+00
C     5.312988963537723e+00   3.542026691702832e+00   1.739656565363733e+00  5.16910570e-01  -1.25904566e+00  -4.22327360e-01
C     4.470370834092389e+00   4.512486318841781e+00   9.517751382822801e-01 -5.15127980e-01  -1.73779256e+00  -2.33311753e+00
C     6.233799741803057e+00   6.243695234763906e+00   8.148654258523298e-01  1.93416253e+00   4.97702330e-01   2.64912613e+00
C     4.545880266626018e+00   6.230500509612436e+00   2.723266916518135e+00 -1.89861418e+00  -7.11670560e-01  -1.39725838e+00
C     6.178839550632003e+00   4.379070822634918e+00   2.611933379759171e+00  4.02559730e-01   1.45830656e+00   2.74232913e+00
C     5.217518227276420e-02   3.400463237152020e-02   3.502182774485886e+00 -3.12328908e+00  -1.10933315e+00   1.80589585e+00
C     1.755490008075973e+00   1.793648731542395e+00   3.567028222489217e+00  4.30932430e-01  -2.11586740e-01  -5.62128460e-01
C     1.455314471415220e-02   1.788469890242594e+00   5.334769881287665e+00  6.32791580e-01  -2.61101000e-02  -3.19556360e-01
C     1.828669228590539e+00   7.067780426922829e+00   5.264546698319625e+00 -2.12671067e+00   1.08243866e+00   1.85451550e+00
C     8.739976924275141e-01   8.677109323781600e-01   4.434637717676590e+00  1.46887029e+00   1.08853864e+00  -2.35601100e-01
C     2.669713979773162e+00   2.733740253153764e+00   4.402257004452609e+00 -3.23879190e-01  -1.92835389e+00   1.32780507e+00
C     9.583390557295880e-01   2.675179859178359e+00   6.212116067274557e+00 -1.48274055e+00   4.30237850e-01   1.05015930e-01
C     2.674225553441624e+00   8.801178310506556e-01   6.184841334018522e+00 -2.90681120e-01  -7.03637500e-02   1.66237590e-01
C     3.567915709053324e+00   7.091119581995301e+00   3.502687970081490e+00  3.93339170e-01   6.20725670e-01   1.19629077e+00
C     5.345386950228670e+00   1.756539211254685e+00   3.569266735856481e+00 -1.22796760e+00   5.73025230e-01  -3.47678200e-01
C     3.475710653227875e+00   1.787914935688651e+00   5.326602516949964e+00  2.46918309e+00   6.35608960e-01  -1.10573348e+00
C     5.330583091448712e+00   1.486868759425400e-03   5.317769804255030e+00  2.83641830e-01  -1.36573680e-01  -2.89396300e-02
C     4.404384839679679e+00   8.689051473783199e-01   4.449516357062512e+00  6.75622070e-01   1.05039300e+00  -3.98048550e-01
C     6.219450822070777e+00   2.681309096582454e+00   4.496236962322045e+00 -1.72070197e+00  -1.49781010e+00  -5.76035680e-01
C     4.347166658063382e+00   2.702173169982868e+00   6.234227313423649e+00  9.31834870e-01  -1.88507332e+00   9.56969520e-01
C     6.238243998709307e+00   9.007084434328786e-01   6.175940380466436e+00 -7.81161430e-01  -3.72977450e-01   8.13814740e-01
C     6.998250101907560e+00   3.530035067079797e+00   3.579460640398919e+00  3.48511222e+00   4.29519790e-01  -1.15072666e+00
C     1.758630082684132e+00   5.308241390238277e+00   3.528082596638761e+00 -1.86670510e-01  -5.07416810e-01   7.95415950e-01
C     1.101094663838000e-02   5.316884308049256e+00   5.367486538564667e+00 -3.61688440e-01   1.13275285e+00  -1.21351513e+00
C     1.838579435986212e+00   3.611978830516370e+00   5.383738738453452e+00 -2.23697210e+00  -8.97062120e-01  -2.63933895e+00
C     8.425629680858026e-01   4.408084204979580e+00   4.425346227385761e+00  1.11198690e+00   1.43129644e+00   1.49838541e+00
C     2.676152149224323e+00   6.197086658244864e+00   4.366072716453118e+00 -2.85293500e-01   5.59338210e-01   1.07202857e+00
C     9.035239474642082e-01   6.237560097369037e+00   6.256782907070719e+00  1.00872287e+00  -2.02202555e+00  -1.82057110e+00
C     2.653356148724245e+00   4.536988269686433e+00   6.270776974345808e+00 -4.20428670e-01  -1.10033174e+00  -9.02028620e-01
C     3.584072158489417e+00   3.574581987786360e+00   3.510816877852817e+00 -4.50267440e-01  -1.37325781e+00   1.94913593e+00
C     5.365050695385472e+00   5.308648205264820e+00   3.609227160120169e+00 -5.90157650e-01   1.34882000e-02  -6.50315210e-01
C     3.525734968984280e+00   5.401644215275196e+00   5.318495787457211e+00  1.18746906e+00  -2.56245569e+00   1.12305133e+00
C     5.282708718113726e+00   3.511317879479074e+00   5.423331230762328e+00  5.45132920e-01   2.00224168e+00  -1.88630873e+00
C     4.406309871609402e+00   4.410948614958535e+00   4.531993181111360e+00  1.26408465e+00   1.14109441e+00  -2.68167733e+00
C     6.236509330337348e+00   6.233363568991094e+00   4.444015504218025e+00  6.46930400e-01  -5.87887600e-01   1.05503910e-01
C     4.467574807139038e+00   6.202145438286613e+00   6.223854703136546e+00 -1.04115927e+00   1.69722829e+00  -6.34016450e-01
C     6.201648061955892e+00   4.472853948282008e+00   6.243871950150239e+00  7.49898060e-01  -1.45583024e+00  -2.83816900e-01
