64
Lattice="7.10842262195238 0 0 0 7.10842262195238 0 0 0 7.10842262195238 " PBC="1 1 1" Properties=species:S:1:pos:R:3:force:R:3 Energy="-512.48568313"
C     7.097113261780032e+00   1.301424230114840e-02   7.093432804884301e+00  5.73541580e-01  -1.14163881e+00   8.57356940e-01
C     1.770495888226793e+00   1.755438969601561e+00   6.400992400857600e-03  2.72942850e-01   9.69111000e-02   4.93347500e-01
C     7.094281550545129e+00   1.767296387205531e+00   1.792562422397607e+00  4.80915440e-01  -5.33545400e-01  -2.39265650e-01
C     1.815256274864635e+00   7.051586729352207e+00   1.747800116485657e+00 -2.00740961e+00   1.86254341e+00   4.52232410e-01
C     8.725198513648161e-01   8.495618499132284e-01   8.924004744957537e-01  6.17848040e-01   7.46131810e-01  -1.96850940e-01
C     2.639228869609256e+00   2.665787855791684e+00   9.006065797367340e-01  2.23481780e-01  -2.32336760e-01  -9.06384120e-01
C     8.768451843606337e-01   2.632895051802158e+00   2.682218690340909e+00  1.41860260e-01   9.50946390e-01  -3.91250620e-01
C     2.660523144746633e+00   9.288776295071883e-01   2.587052265651968e+00 -2.42923920e-01  -2.86284293e+00   2.94578989e+00
C     3.567737003308658e+00   1.621992765008980e-02   3.389295905216000e-03  1.88338730e-01   4.24628000e-02  -1.34446484e+00
C     5.328940974739265e+00   1.826441946531015e+00   7.085933632272879e+00 -2.95177360e-01  -1.45719986e+00   1.20220091e+00
C     3.496839444286659e+00   1.780331386100730e+00   1.762582081323947e+00  2.32193395e+00   1.25821725e+00  -5.81503610e-01
C     5.294429227498034e+00   7.097954970102466e+00   1.774764282757424e+00  2.09421722e+00   1.09773168e+00  -1.78234010e+00
C     4.423526684447720e+00   9.125783007764333e-01   8.497551990084924e-01  9.89903900e-02   2.95823100e-01   1.61185240e+00
C     6.225768432674302e+00   2.651700810348725e+00   9.344503485043636e-01 -7.72340660e-01   1.50345386e+00  -1.23578371e+00
C     4.400693933402697e+00   2.656837001112806e+00   2.704378131595366e+00  7.51644370e-01   1.57521390e-01  -1.30097477e+00
C     6.219633224195206e+00   8.770835297710824e-01   2.646090629964343e+00 -6.52493700e-01  -4.11802420e-01   6.51337120e-01
C     7.080187538848002e+00   3.597206888553975e+00   6.329837090431399e-02  9.91082180e-01  -1.74539930e+00  -1.52692538e+00
C     1.826368516525350e+00   5.290558833549897e+00   7.103414594095757e+00 -2.43222605e+00   2.67533043e+00   3.09367240e-01
C     7.084116932703886e+00   5.352813545845142e+00   1.843962715520564e+00  1.88574097e+00  -1.93126590e-01  -2.81902341e+00
C     1.764685463577205e+00   3.526874946719849e+00   1.768817589646211e+00 -2.84946400e-02   6.72773550e-01   1.10451123e+00
C     9.013868002035053e-01   4.439673821850181e+00   9.115228421858156e-01 -8.42797330e-01   5.96697370e-01   1.42742050e-01
C     2.681436977105388e+00   6.240560278220034e+00   8.597894483788844e-01  2.30809890e-01  -1.51076858e+00  -8.58743600e-02
C     9.143198643183332e-01   6.186041520093681e+00   2.657538602425400e+00  5.00142000e-03   1.03255561e+00   1.47016915e+00
C     2.682152368757865e+00   4.456202610463110e+00   2.656527073886574e+00 -1.77792803e+00   2.25615180e-01  -9.30840200e-02
C     3.538103268921949e+00   3.577246793258146e+00   4.156650127045000e-02 -2.03455300e-01  -1.34051970e+00  -1.53763905e+00
C     5.321709434239486e+00   5.314632501931693e+00   2.837284238237280e-02  3.30683100e-02   7.17120280e-01  -1.65344530e-01
C     3.520838118809814e+00   5.346336990911833e+00   1.749577719730240e+00  1.14305010e+00  -3.44734810e-01   1.01235021e+00
C     5.348274107160010e+00   3.575901737529989e+00   1.802252197607833e+00 -1.49079608e+00  -1.57783130e+00   6.75243250e-01
C     4.372131082883691e+00   4.409448311280357e+00   9.514669881617028e-01  2.77876087e+00   1.38404639e+00  -1.95349182e+00
C     6.235521259593169e+00   6.234281835025145e+00   8.881868859035223e-01 -8.09041230e-01  -9.27086730e-01   5.34955860e-01
C     4.474530469756934e+00   6.202163706932747e+00   2.605242648052322e+00 -2.28078359e+00   8.62501020e-01   1.20634829e+00
C     6.233864783870030e+00   4.472742701468005e+00   2.674897512631893e+00 -4.62105950e-01  -8.32680170e-01   4.10701920e-01
C     2.536754346708920e-02   1.071473866780460e-02   3.544095953527514e+00 -6.05876630e-01  -1.32280608e+00  -1.51936000e-01
C     1.772876214625326e+00   1.742727048514441e+00   3.563133944241076e+00 -3.93317900e-01   1.25863099e+00  -1.58682996e+00
C     3.257079244484000e-03   1.755023055794065e+00   5.359462408942758e+00 -2.52752690e-01   7.62369740e-01  -5.58186120e-01
C     1.808876465563185e+00   2.424690064104620e-02   5.294102524394419e+00 -4.20446840e-01  -1.81338707e+00   8.91914730e-01
C     9.005711797920865e-01   8.470831429456344e-01   4.414145699116106e+00 -7.40530000e-04   1.68880206e+00   1.36981663e+00
C     2.633220688642380e+00   2.684432821818587e+00   4.394919619540018e+00  1.03077840e+00  -9.02716400e-01   1.82522385e+00
C     8.975888410818653e-01   2.650066086398803e+00   6.298308961416462e+00 -7.68460290e-01   4.81973730e-01  -2.22514786e+00
C     2.690715032477464e+00   8.956328164295200e-01   6.192713840985945e+00 -8.54318870e-01  -2.11510000e-03   1.74404420e-01
C     3.588089981122694e+00   1.429269210935540e-02   3.506871632214491e+00 -6.54024990e-01  -1.06350573e+00   4.92256580e-01
C     5.295873019216382e+00   1.704344907325073e+00   3.541516875632525e+00  1.67855245e+00   3.59343943e+00  -1.42026160e-01
C     3.532403522412554e+00   1.772937702480989e+00   5.290016531988217e+00  1.69185936e+00   1.03241667e+00   3.78956460e-01
C     5.365876694093916e+00   3.019409134184300e-02   5.329310186210147e+00 -1.22695042e+00  -1.46755085e+00   4.29671400e-01
C     4.484776834458307e+00   8.784434421025146e-01   4.414645136889387e+00 -2.21282752e+00  -6.33097310e-01   1.03588393e+00
C     6.202642672448882e+00   2.670278459613417e+00   4.422223994918379e+00  7.54507520e-01  -4.44530760e-01   8.72050910e-01
C     4.448603919935008e+00   2.693142843139099e+00   6.209553907425404e+00 -7.90176320e-01   3.95221940e-01  -1.82326800e-01
C     6.176565708404317e+00   8.637167807922081e-01   6.255379349024400e+00  2.17037476e+00   2.14853526e+00  -1.48885954e+00
C     2.361254500643740e-02   3.579007762793798e+00   3.550583526515883e+00 -6.10482610e-01  -1.50586786e+00   8.94054890e-01
C     1.813511299279878e+00   5.327268007475649e+00   3.588304300064686e+00 -1.40717038e+00  -1.00536165e+00  -8.39102230e-01
C     7.098520516206113e+00   5.318390511718208e+00   5.368646846388930e+00  1.19899226e+00   5.98550220e-01  -1.10938886e+00
C     1.815639347759627e+00   3.534043577679441e+00   5.353392242530636e+00 -1.68892609e+00  -4.26208290e-01   6.23212230e-01
C     9.288890740676067e-01   4.384434411838614e+00   4.508895783492194e+00 -1.49268017e+00   2.10668682e+00  -1.78494731e+00
C     2.676400659679118e+00   6.182393264352419e+00   4.443779717839719e+00  9.16343920e-01   2.43019322e+00  -5.72353160e-01
C     9.274800425358702e-01   6.236659744559987e+00   6.204955184495621e+00 -1.12589354e+00  -6.28892170e-01   5.46089300e-01
C     2.646155387694411e+00   4.465616294538775e+00   6.217561047917251e+00  2.34753394e+00  -1.66560541e+00   1.22590950e-01
C     3.504731428332061e+00   3.608889652214171e+00   3.546687044656730e+00  1.96259463e+00  -2.32002402e+00  -4.73722500e-02
C     5.299090575631099e+00   5.339220322521594e+00   3.498968203608670e+00  1.59287754e+00   2.20969170e-01   2.02807111e+00
C     3.552761547206651e+00   5.329341321101223e+00   5.330531484300490e+00  1.14339889e+00   7.41802310e-01   2.41164830e-01
C     5.337995114798812e+00   3.601938681155204e+00   5.323959463251395e+00 -7.13594030e-01  -1.56375779e+00  -9.69311200e-01
C     4.443523317035815e+00   4.460184251225250e+00   4.395214050404938e+00 -7.22042340e-01   1.82378170e-01   1.58106809e+00
C     6.224572582736940e+00   6.231360060075646e+00   4.464938577526185e+00  3.92872030e-01  -4.82487290e-01  -1.35644453e+00
C     4.499783141114484e+00   6.250403097769270e+00   6.251828763009937e+00 -2.10765221e+00  -1.13168493e+00  -1.15682318e+00
C     6.194514617688269e+00   4.459956639532958e+00   6.212201865935580e+00  6.68161640e-01  -3.28153440e-01   1.73395536e+00
