64
Lattice="7.10842262195238 0 0 0 7.10842262195238 0 0 0 7.10842262195238 " PBC="1 1 1" Properties=species:S:1:pos:R:3:force:R:3 Energy="-513.18032443"
C     7.106331037728291e+00   7.217465822990800e-03   7.100569163605198e+00  6.60892400e-01  -5.13788700e-02   9.14154800e-01
C     1.783379690972864e+00   1.801411484464566e+00   7.072206059761814e+00  3.68748900e-02  -9.98457470e-01   1.53886709e+00
C     3.755521838598400e-03   1.794687129918725e+00   1.760610986815647e+00 -7.07163100e-02  -5.11713670e-01   2.24525641e+00
C     1.759681560558082e+00   1.297457730292880e-02   1.834718425155933e+00  3.02341460e-01   4.62301320e-01  -1.65775343e+00
C     8.947889755802998e-01   9.182583569551704e-01   9.419925981568623e-01 -6.04099000e-03  -8.15509420e-01  -2.32816070e+00
C     2.692860567676859e+00   2.666014898810166e+00   8.737036880679510e-01 -1.60059670e-01  -3.19149800e-02  -3.38039260e-01
C     9.177810974604637e-01   2.665709805311316e+00   2.665489799631227e+00 -9.43884080e-01   8.05783310e-01  -7.79547450e-01
C     2.645005742504078e+00   9.069430276602021e-01   2.706075622917022e+00  1.30020568e+00  -7.83285040e-01  -2.27143740e-01
C     3.529945145533653e+00   7.067751922148123e+00   3.405432024563400e-03  1.11651469e+00   1.52597133e+00  -3.20511330e-01
C     5.360245686031257e+00   1.777559669952739e+00   7.100023094579529e+00 -8.48923110e-01  -1.72522965e+00   5.16954630e-01
C     3.601334038727147e+00   1.779260075727670e+00   1.788853034221812e+00 -2.22309396e+00  -2.13832500e-01  -2.91815920e-01
C     5.328465847771344e+00   7.103796103137773e+00   1.816019221864440e+00  8.66101740e-01   1.79639960e-01  -6.23838210e-01
C     4.472956593904640e+00   8.801527334057198e-01   8.983942964489375e-01 -9.96314780e-01  -3.12105870e-01   5.82653500e-02
C     6.231356719117015e+00   2.616516037653832e+00   8.882429002737680e-01 -8.56140390e-01   2.38223140e+00  -8.43438750e-01
C     4.421165266453356e+00   2.698718832010679e+00   2.657312412417632e+00  1.23244792e+00  -1.66383659e+00   5.83459670e-01
C     6.192829992611555e+00   9.364741164242776e-01   2.729388192488896e+00  7.38930550e-01  -1.85304470e+00  -2.22627936e+00
C     7.075394898149146e+00   3.528399632287613e+00   7.084520051350666e+00  1.74090986e+00   1.05027590e+00   3.58099000e-02
C     1.747061622459665e+00   5.329635894134595e+00   3.618755787389600e-03  6.90590650e-01   6.02501640e-01  -1.15259460e+00
C     2.510837037836400e-03   5.307867416124239e+00   1.756098062546888e+00 -3.04592520e-01   9.80796470e-01   2.14730780e-01
C     1.786593408839366e+00   3.551209352043348e+00   1.737552614436665e+00  4.12462590e-01  -2.33982200e-01   7.70387770e-01
C     8.839968261901634e-01   4.455741558171977e+00   8.482318640410264e-01 -2.50799320e-01  -1.42609361e+00   1.21076079e+00
C     2.651518408224296e+00   6.231043664184829e+00   8.877961359121010e-01 -2.03588710e-01  -7.84903140e-01   8.96273150e-01
C     8.465483763119318e-01   6.241635711478214e+00   2.665385803408296e+00  1.01290850e+00  -6.80951330e-01   2.35994500e-01
C     2.699814595357552e+00   4.395319610480845e+00   2.633499552061763e+00 -9.59520580e-01   2.09253200e+00   1.09638399e+00
C     3.580703334841346e+00   3.570916529662358e+00   7.096832692339222e+00 -1.12495643e+00  -4.19680800e-01   1.12549930e-01
C     5.359242829768027e+00   5.359151770874265e+00   7.100692210400750e+00 -1.19605680e-01  -3.16887910e-01  -7.09848220e-01
C     3.561360961471196e+00   5.328949931351766e+00   1.756741801299355e+00 -7.71750400e-02   8.12892000e-03   9.16559800e-01
C     5.292125387726892e+00   3.553478076206747e+00   1.727077287442702e+00  1.40492765e+00   6.97905000e-03   1.52177877e+00
C     4.438901065227161e+00   4.480105179112443e+00   8.644146146408136e-01  7.16654720e-01  -6.98342710e-01  -4.75096250e-01
C     6.265543682528738e+00   6.226149941716318e+00   8.638966949687203e-01 -1.70880236e+00  -9.08593700e-02   1.51220666e+00
C     4.456964135778390e+00   6.196176424728374e+00   2.699771944821832e+00 -1.12684096e+00   3.54735070e-01  -3.77924080e-01
C     6.208271974490112e+00   4.420066233232078e+00   2.639241238264615e+00  9.05700100e-02   6.69893840e-01  -4.07713000e-02
C     7.085856790224358e+00   2.509173666943320e-02   3.563299357235444e+00  5.06074970e-01   8.09737000e-03  -5.07389700e-02
C     1.782349467282548e+00   1.821106435596669e+00   3.588540157527218e+00 -7.12770900e-02  -1.25684805e+00  -1.30884624e+00
C     2.000466510565640e-02   1.783760773509522e+00   5.303413420679000e+00 -1.51299237e+00   3.09371860e-01   9.28216460e-01
C     1.707832228378219e+00   2.806177780852160e-02   5.334380197559637e+00  1.69697662e+00  -1.09477775e+00   1.41530890e-01
C     8.843360401175898e-01   9.491005942715049e-01   4.454981596709673e+00 -1.27863800e-01  -1.94372354e+00  -9.01311630e-01
C     2.658838875091051e+00   2.653564780928142e+00   4.458026347370497e+00  1.45003414e+00   6.76681990e-01   1.40336800e-02
C     8.759812266753990e-01   2.665329433616920e+00   6.176784221315656e+00  5.60431240e-01   1.70195060e-01   1.07453434e+00
C     2.637498608459322e+00   8.373854773862994e-01   6.225706944818639e+00  5.85987540e-01   1.67270579e+00  -1.11846080e-01
C     3.529646805036292e+00   7.074329132345730e+00   3.596522631792574e+00  1.32970090e-01   1.11313383e+00  -3.25766650e-01
C     5.306121587528767e+00   1.750333487223199e+00   3.593442978776685e+00  5.75018130e-01   2.82785392e+00  -1.41882191e+00
C     3.556083597433882e+00   1.752231933652322e+00   5.333431507476772e+00 -3.30190000e-01   1.74323710e-01   9.45722390e-01
C     5.344336183196982e+00   7.105137462486167e+00   5.284352185423470e+00 -2.14370200e-01   1.23034860e-01   2.10585861e+00
C     4.452942403512672e+00   9.073535390665070e-01   4.458582794693190e+00 -1.08086883e+00  -1.61514634e+00  -2.23229190e-01
C     6.217291283278821e+00   2.690598170009591e+00   4.420605691424710e+00 -3.99544800e-02  -1.48152991e+00   1.05854263e+00
C     4.454048047566988e+00   2.650286874005381e+00   6.240452941038471e+00 -5.14430100e-02   1.01981800e-01  -3.00849960e-01
C     6.224385417969355e+00   8.456443271231202e-01   6.236317189673930e+00  6.26974400e-02   1.99186088e+00  -1.62778144e+00
C     7.103455680778501e+00   3.549467859585674e+00   3.510042628461047e+00  1.18133420e-01   3.39470130e-01   1.09406811e+00
C     1.762617481268594e+00   5.350460231452565e+00   3.533956926007703e+00  1.27314680e-01  -1.28576616e+00   7.32143960e-01
C     8.763121237483599e-03   5.343690596254634e+00   5.330266553389443e+00 -1.98792000e-02  -4.31570980e-01  -8.57083330e-01
C     1.794235602913902e+00   3.549180608227600e+00   5.305208652811680e+00 -1.00834734e+00   4.42826990e-01   7.08004870e-01
C     8.908760021806684e-01   4.443342407680137e+00   4.443361529336984e+00 -5.94307900e-02   1.26973970e-01  -1.37232310e+00
C     2.601088628041647e+00   6.193875143989374e+00   4.505412158818810e+00  1.82860378e+00   1.06357562e+00  -2.19247808e+00
C     8.519622931477762e-01   6.235416410359523e+00   6.191376106933087e+00  7.97690310e-01   2.02797000e-02   1.43897045e+00
C     2.639992811788228e+00   4.428759052169850e+00   6.210081849973390e+00  1.48095101e+00   5.80421970e-01   5.40594340e-01
C     3.596345063395526e+00   3.539814052993904e+00   3.593576403869262e+00 -1.65030843e+00   2.69412350e-01  -1.56776906e+00
C     5.334272149535812e+00   5.316485880961406e+00   3.599943204757317e+00  5.92167310e-01  -4.84201790e-01  -1.95129330e+00
C     3.570830944254013e+00   5.336383208885500e+00   5.351757518580714e+00 -1.20227161e+00  -1.06692984e+00  -5.53154540e-01
C     5.342806663901837e+00   3.517661435825163e+00   5.379574837735334e+00  4.61407540e-01   1.66208184e+00  -2.11583125e+00
C     4.478750313761071e+00   4.408885466377306e+00   4.452268027458714e+00 -1.11138390e+00   8.34918000e-01   1.15934850e+00
C     6.228498991055322e+00   6.212643014643377e+00   4.438013081073470e+00 -7.48169900e-02   3.45581230e-01  -4.11520300e-02
C     4.467834548901573e+00   6.224613100745874e+00   6.184436793687216e+00 -7.72420120e-01  -1.53233190e-01   1.22234506e+00
C     6.261204488108811e+00   4.470236129483740e+00   6.185876320351993e+00 -1.98089746e+00  -1.54999910e+00   1.78715490e+00
