64
Lattice="7.10842262195238 0 0 0 7.10842262195238 0 0 0 7.10842262195238 " PBC="1 1 1" Properties=species:S:1:pos:R:3:force:R:3 Energy="-513.19090701"
C     9.047031636926399e-03   1.293796892643580e-02   7.061424075416025e+00  3.41054780e-01  -3.41548710e-01   1.11603838e+00
C     1.741031049961536e+00   1.782984675927871e+00   2.602429063295100e-02  4.63601070e-01  -1.02709100e-01  -1.21306899e+00
C     2.241363844734820e-02   1.744431719342944e+00   1.736958918979443e+00 -2.14427417e+00   1.73598239e+00   1.52068912e+00
C     1.790217069438364e+00   7.084975345819478e+00   1.797942645310232e+00 -5.94752100e-02   5.27090820e-01  -5.31927150e-01
C     8.667667916857716e-01   8.963467153132466e-01   9.262696914163628e-01  1.68147969e+00  -1.69529012e+00  -2.01374199e+00
C     2.644253813559335e+00   2.663755202343495e+00   8.453130035448020e-01  4.44669270e-01   5.80168500e-01   1.43499553e+00
C     8.536073953947227e-01   2.683367553604753e+00   2.645192907271663e+00  1.39115186e+00  -1.27140784e+00  -3.11934590e-01
C     2.706303661114672e+00   8.878435490909764e-01   2.630304813683656e+00 -1.33595245e+00  -4.01392130e-01   1.04541964e+00
C     3.580429020812441e+00   6.339931050551800e-02   7.063331691710328e+00 -8.39006700e-01  -1.24292556e+00   1.62217883e+00
C     5.340596655309279e+00   1.814986083720849e+00   1.283191126094540e-02 -2.58834880e-01  -1.74946737e+00  -1.66598429e+00
C     3.568094059376860e+00   1.785041853434099e+00   1.734582928718708e+00 -5.12856720e-01   3.05561360e-01   1.54917576e+00
C     5.324703999436614e+00   5.636339379624200e-03   1.748697412672980e+00  8.79702880e-01  -2.60730580e-01  -1.46668000e-03
C     4.458195385660400e+00   9.211912921281823e-01   8.744447411260859e-01 -3.49511300e-02  -3.75814650e-01  -1.87779090e-01
C     6.201926427785692e+00   2.666555920855775e+00   8.293777682206432e-01  9.62760860e-01   2.50510800e-01   2.86515453e+00
C     4.435156632527850e+00   2.663724707210455e+00   2.720478708829666e+00 -3.89494270e-01  -1.60512200e-01  -1.15324110e+00
C     6.230954737817854e+00   8.581234473694350e-01   2.630059288766361e+00 -6.84598760e-01   1.33368026e+00   7.72257610e-01
C     7.081685923252072e+00   3.560107462226385e+00   7.075164940677389e+00  9.77195800e-02   6.97773100e-01   9.18792510e-01
C     1.798069957159356e+00   5.348701749864829e+00   7.103504231304996e+00 -4.38352270e-01  -2.98040440e-01   6.50144420e-01
C     1.041526082282400e-03   5.324748355993763e+00   1.774863587421426e+00  1.91980730e-01  -9.78276200e-02   2.49650020e-01
C     1.736845752891332e+00   3.568227982059020e+00   1.742997595079359e+00  1.39943931e+00  -8.18188870e-01   1.50637612e+00
C     8.875762013162382e-01   4.426013850438232e+00   8.952808073413776e-01 -6.20927740e-01   1.47351435e+00  -1.23288867e+00
C     2.697278310166736e+00   6.224365443301792e+00   8.729572326086248e-01 -7.11366780e-01   5.32767680e-01   4.18081810e-01
C     9.007690071936011e-01   6.204419493766977e+00   2.721201564325894e+00  2.21829720e-01   2.11267750e-01  -1.31599403e+00
C     2.636277736874337e+00   4.436708187933117e+00   2.695793005260287e+00  3.80491590e-01   4.89410280e-01  -7.31460860e-01
C     3.553357375190660e+00   3.548700078858488e+00   7.095480030598861e+00 -2.22704790e-01   5.91982340e-01   4.69172160e-01
C     5.302648412236635e+00   5.315237499780881e+00   3.430219094239340e-02  8.53664590e-01   3.37099170e-01  -6.49923260e-01
C     3.539956434698983e+00   5.327990436466519e+00   1.786089634928287e+00  8.94999310e-01  -8.39797300e-02   3.41332770e-01
C     5.330009654995956e+00   3.523527164002734e+00   1.846723840118851e+00  1.14097930e-01   2.21369180e-01  -2.02971681e+00
C     4.452389012811707e+00   4.422245320186239e+00   9.524414818186787e-01 -8.93010200e-01  -5.35673600e-02  -1.10220121e+00
C     6.230914930651182e+00   6.225382374241810e+00   8.339311394141105e-01 -2.94081650e-01  -2.35277740e-01   1.62934799e+00
C     4.493177710479076e+00   6.215968547997692e+00   2.658343275865984e+00 -1.45488079e+00  -8.32189390e-01  -1.91529550e-01
C     6.231685625831642e+00   4.389295577731526e+00   2.682018374991478e+00 -3.21719160e-01   1.77901967e+00  -6.41009280e-01
C     7.095231164722935e+00   7.104716786035516e+00   3.537145764395035e+00  7.83170920e-01   7.81912130e-01   6.15020930e-01
C     1.772139924210346e+00   1.796773238705016e+00   3.543891941798320e+00 -1.25092950e-01  -6.13880390e-01  -1.51204870e-01
C     7.089891744156148e+00   1.815334680766134e+00   5.292563764149867e+00 -1.17087200e-01  -3.92110510e-01   1.89120094e+00
C     1.786528793277751e+00   2.611947241183280e-02   5.322124921541625e+00 -9.27019000e-02  -2.97589060e-01   3.20220820e-01
C     8.340398271959703e-01   9.442664403845479e-01   4.493328480122845e+00  2.52233313e+00  -2.12556347e+00  -3.32096976e+00
C     2.658246672402578e+00   2.652649998021174e+00   4.432490192118862e+00 -2.90748310e-01   1.01478975e+00   5.23036290e-01
C     8.579454524670301e-01   2.676387366928818e+00   6.230250577473117e+00  2.78090630e-01  -5.39393500e-02  -4.46932480e-01
C     2.651136614845376e+00   9.390478630023009e-01   6.208847116964297e+00  2.64007800e-01  -1.00807774e+00  -1.01105000e-03
C     3.571443121610047e+00   7.062417903982527e+00   3.527666185241682e+00  3.98050410e-01   1.34746639e+00   7.70322750e-01
C     5.323508718173061e+00   1.790043695010662e+00   3.596394395848509e+00 -3.44958680e-01  -1.95160543e+00  -1.37314668e+00
C     3.562108412109689e+00   1.785072064230234e+00   5.299320675271308e+00 -6.96990530e-01  -1.02616720e-01   1.63712856e+00
C     5.340281610018761e+00   7.083065668082615e+00   5.338759909988497e+00  3.89692490e-01   2.71230240e-01  -1.65002460e-01
C     4.422620289479444e+00   8.445646288113684e-01   4.493063264874894e+00  8.88868270e-01   7.29998800e-01  -1.99409737e+00
C     6.204551212838126e+00   2.665100186987425e+00   4.423094421268198e+00  4.69868800e-01   3.77840300e-01   5.09544050e-01
C     4.458703708961957e+00   2.667257593252595e+00   6.229564046016477e+00 -6.23385640e-01   1.02768730e-01  -8.83880380e-01
C     6.246946556186067e+00   9.007970143787237e-01   6.178735554409072e+00 -1.16121898e+00   4.82271900e-02   9.26404670e-01
C     7.104482776762865e+00   3.534184253363091e+00   3.532677836441460e+00  4.99437400e-02   3.06912300e-01   9.13382060e-01
C     1.791564328777532e+00   5.325942997499280e+00   3.629846490529776e+00 -1.09723844e+00  -8.78250970e-01  -2.03099421e+00
C     7.100461186665599e-03   5.315219302218974e+00   5.307905446185256e+00 -3.47212410e-01   9.81742180e-01   1.00327173e+00
C     1.745197083206439e+00   3.556256047766643e+00   5.350045312824235e+00  9.74333720e-01  -4.10106350e-01  -5.84192300e-02
C     8.695131307650086e-01   4.414185861703910e+00   4.471678215180659e+00  5.32481330e-01   2.84931270e-01  -8.48010900e-01
C     2.700146629778132e+00   6.187123990690256e+00   4.430052927255142e+00 -5.48975010e-01   1.56157710e+00   8.87009990e-01
C     9.343513281772670e-01   6.216099200805447e+00   6.228618341471112e+00 -1.27489072e+00   5.77654240e-01  -1.04797419e+00
C     2.643010834780001e+00   4.486047962591216e+00   6.215251094902655e+00  1.07909604e+00  -1.89393534e+00   2.89598280e-01
C     3.519992927360296e+00   3.566116069698619e+00   3.585046225641035e+00  1.07689814e+00  -2.46978890e-01  -2.14449870e-01
C     5.357923364361302e+00   5.297679695909482e+00   3.551931212360409e+00 -1.80441860e-01   7.28438110e-01   4.67651740e-01
C     3.569843015678285e+00   5.326913723692267e+00   5.359183190102245e+00 -5.76404300e-02   7.62300760e-01  -4.33816700e-02
C     5.348932915768431e+00   3.535920556672252e+00   5.338130814586627e+00 -7.58534600e-01   7.46874420e-01   8.71276500e-02
C     4.467470739831882e+00   4.446416587210608e+00   4.519309480462041e+00 -9.72804250e-01  -3.51484310e-01  -2.56160320e+00
C     6.257305802638647e+00   6.223852570609759e+00   4.398864651925666e+00 -1.31783460e+00  -8.08728800e-01   1.45943003e+00
C     4.451556190017547e+00   6.224340421654171e+00   6.258998886738278e+00 -2.09902690e-01  -2.54501700e-02  -1.03524179e+00
C     6.178427546456947e+00   4.462668716015166e+00   6.198837604904623e+00  1.40497941e+00  -5.26712780e-01   7.42311740e-01
