64
Lattice="7.10842262195238 0 0 0 7.10842262195238 0 0 0 7.10842262195238 " PBC="1 1 1" Properties=species:S:1:pos:R:3:force:R:3 Energy="-512.55773183"
C     1.334656105863340e-02   7.102567696624811e+00   7.093064944013716e+00 -1.10555080e+00   8.65020770e-01   1.80346190e-01
C     1.798285129112064e+00   1.816517735542780e+00   7.052113463468348e+00 -4.03411010e-01  -1.33378956e+00   1.84288071e+00
C     7.101517213930027e+00   1.764489057860214e+00   1.771274687009040e+00  3.14793300e-01   6.90076870e-01  -5.74149140e-01
C     1.754443008508273e+00   3.037471636061720e-02   1.767918445269007e+00  9.66448200e-01  -8.40828390e-01   2.55604110e-01
C     8.928945809520697e-01   9.097109763442037e-01   8.597818423666810e-01  1.29595000e-02  -1.24128950e-01  -6.26734900e-02
C     2.668870494345073e+00   2.654218187135372e+00   8.878645900219316e-01  1.40154110e-01   7.14451340e-01   7.30479000e-03
C     8.800920274765449e-01   2.620130812724555e+00   2.692260048133921e+00  2.10351600e-02   1.92754207e+00  -6.78117660e-01
C     2.653691879524587e+00   8.950377703719998e-01   2.701529928819984e+00  8.74560480e-01   3.80235280e-01  -1.68152252e+00
C     3.520722678026465e+00   7.061817882029172e+00   7.084588007870914e+00  1.77398679e+00   1.19389889e+00   6.97244070e-01
C     5.339394052370428e+00   1.815379748165544e+00   7.048690544724139e+00 -1.03449475e+00  -1.76725666e+00   2.06643365e+00
C     3.571292636303181e+00   1.743660953078257e+00   1.772592872899693e+00 -1.03126915e+00   1.40017575e+00   7.15746170e-01
C     5.354325933841773e+00   1.364653649319740e-02   1.798332400122487e+00  3.49815050e-01  -1.05667027e+00  -8.25291070e-01
C     4.450700051597194e+00   8.768185277758088e-01   9.275768592519545e-01 -4.04155550e-01  -1.91987040e-01  -2.17618137e+00
C     6.180266637557194e+00   2.673778860164183e+00   8.740832778358590e-01  1.52643948e+00  -8.43596840e-01  -3.43412100e-01
C     4.445736453334327e+00   2.698315429026994e+00   2.647376614700527e+00 -1.09373610e-01  -2.27621563e+00   3.06359110e-01
C     6.245612376344520e+00   9.079311694886082e-01   2.655047029212864e+00 -9.42536070e-01  -8.07948680e-01   1.09168507e+00
C     7.074422181597825e+00   3.542083345831113e+00   1.527955442169000e-03  1.86772083e+00   1.02358110e-01   6.04467150e-01
C     1.733728993909367e+00   5.341196677262633e+00   1.432752338019340e-02  9.96649860e-01  -8.70208780e-01  -5.08354200e-01
C     7.105987558747293e+00   5.246839688657432e+00   1.747420242380844e+00 -1.06288893e+00   4.12567089e+00   2.06131922e+00
C     1.752907731390805e+00   3.575720046247822e+00   1.815087805248541e+00  1.46964688e+00  -1.96733578e+00  -9.39979650e-01
C     8.892119204453263e-01   4.450864753749300e+00   9.398360449024066e-01 -2.11066010e-01  -1.57282674e+00  -2.25088325e+00
C     2.643310668046113e+00   6.183153296898950e+00   8.690672904982821e-01  3.96736140e-01   1.33678384e+00   1.11505691e+00
C     8.909531285660954e-01   6.259959874392275e+00   2.666971692494819e+00 -8.26680930e-01  -2.55931662e+00  -3.73192680e-01
C     2.709971891523497e+00   4.418889860372694e+00   2.657691362427504e+00 -2.18453263e+00   2.11868160e-01   1.16980750e+00
C     3.583097522663989e+00   3.569764894113691e+00   4.905522450062000e-04 -1.61122514e+00  -3.32086200e-01   7.35823100e-01
C     5.370651279399318e+00   5.325070154285770e+00   7.100278784541170e+00 -7.73475580e-01   1.22509704e+00  -2.32550700e-02
C     3.565376367240782e+00   5.298229887820269e+00   1.789388369529324e+00  3.71327930e-01   1.38909970e+00  -5.17354010e-01
C     5.309651345864954e+00   3.532981863676917e+00   1.725118845926666e+00 -3.30955610e-01   1.37337527e+00   1.65902667e+00
C     4.448401969648375e+00   4.469585140140200e+00   8.634366378567540e-01  3.12993240e-01  -8.67451660e-01   4.38937390e-01
C     6.253243694532448e+00   6.218544569270954e+00   8.515436781396843e-01 -5.72341780e-01  -5.38090400e-01   1.68480201e+00
C     4.499539677639750e+00   6.208854722976500e+00   2.695040720894413e+00 -1.81989877e+00   9.97418870e-01  -5.46691190e-01
C     6.170352662697532e+00   4.409177906883893e+00   2.653322099379895e+00  1.94229741e+00   2.51227340e-01   3.29236880e-01
C     5.608047857596599e-03   8.413600097258200e-03   3.561090557074731e+00  2.68257950e-01  -6.20774460e-01  -6.30545080e-01
C     1.788511829936052e+00   1.798022970485838e+00   3.589929072222940e+00  2.89788400e-02  -7.52646020e-01  -1.32801219e+00
C     3.012222518915480e-02   1.753556161702202e+00   5.300368030260139e+00 -1.19649336e+00   9.02975990e-01   8.21823030e-01
C     1.730094173086856e+00   3.733627896928800e-02   5.337656327376743e+00  2.03450769e+00  -2.07055475e+00  -9.93133420e-01
C     9.408736613522479e-01   8.807910697569957e-01   4.409114641922575e+00 -2.53200695e+00   7.06959690e-01   1.46859673e+00
C     2.653094132266471e+00   2.690418966675341e+00   4.463569992919156e+00  1.04748908e+00  -1.27225935e+00  -9.80354490e-01
C     8.870921177358162e-01   2.691752222421949e+00   6.220529880624492e+00  6.67890300e-02  -1.32293476e+00  -4.73021880e-01
C     2.669551410147843e+00   8.639161009624730e-01   6.176756285214760e+00 -1.87598220e-01   1.22241199e+00   1.00255241e+00
C     3.552452899496490e+00   3.508582345202220e-02   3.552135153005377e+00  6.71610310e-01  -1.23367811e+00   7.33220770e-01
C     5.340153871664279e+00   1.795071624498240e+00   3.573851952783286e+00 -2.71356060e-01  -1.49267230e-01  -1.66918667e+00
C     3.566550252152249e+00   1.787132511610867e+00   5.299333541516250e+00 -7.61073920e-01   1.59168630e-01   1.60338172e+00
C     5.366735818051770e+00   4.988797621055300e-02   5.336421736536100e+00 -1.68297222e+00  -2.06543836e+00  -1.09970841e+00
C     4.467871797036102e+00   9.527771415347952e-01   4.460079615244284e+00 -5.90336290e-01  -2.03719760e+00  -1.37291487e+00
C     6.184115350816341e+00   2.626322319910801e+00   4.452537081254881e+00  1.32791950e+00   2.01336395e+00   1.32245600e-01
C     4.408057903815886e+00   2.680851882839536e+00   6.228746932836309e+00  9.32261420e-01   1.62557530e-01  -8.26178640e-01
C     6.189612222944160e+00   8.792843684984606e-01   6.191323362437247e+00  2.89385391e+00   1.41582196e+00   1.06919582e+00
C     7.081812097753577e+00   3.510828962171271e+00   3.543585995288755e+00 -2.26028590e-01   5.87002210e-01   1.42783045e+00
C     1.742730958146883e+00   5.304413362488955e+00   3.561746095808747e+00  1.57915012e+00   1.30605614e+00   6.92795400e-02
C     7.104044044918759e+00   5.332519994444208e+00   5.346356823410943e+00 -1.19816620e-01  -8.42897920e-01   4.24939940e-01
C     1.809083178492975e+00   3.534762381374775e+00   5.346607395308299e+00 -1.41409260e+00   1.65221269e+00   6.45034560e-01
C     8.714981577816436e-01   4.424253449576389e+00   4.521826217490652e+00  5.63875190e-01   4.27322800e-02  -3.28715537e+00
C     2.654496055375588e+00   6.240493316878953e+00   4.424674765785076e+00 -1.13098010e-01  -9.07999810e-01   1.16951422e+00
C     8.438076528865646e-01   6.235534196922337e+00   6.202403402943493e+00  1.53635376e+00  -1.95360080e-01   5.89299060e-01
C     2.683616632733358e+00   4.432981241953451e+00   6.244476947999427e+00 -8.82027630e-01   6.79167610e-01  -3.67654690e-01
C     3.563179082724714e+00   3.512833395181659e+00   3.551645667023763e+00 -2.65607840e-01   2.14212992e+00   4.90592000e-03
C     5.354337591654870e+00   5.341411707046888e+00   3.607000233481775e+00 -1.32359528e+00  -1.29741773e+00  -2.02481989e+00
C     3.550994677680224e+00   5.316852106894788e+00   5.341303516854611e+00  6.39188600e-02   1.64708376e+00  -5.90117660e-01
C     5.278318911724744e+00   3.598097360655582e+00   5.349533293142916e+00  1.83923717e+00  -1.91514120e+00  -2.73706580e-01
C     4.418941680773594e+00   4.454262721930112e+00   4.448273591535857e+00  4.93431170e-01  -3.81126130e-01   9.32416500e-02
C     6.219592279680915e+00   6.173733855000961e+00   4.460196193375253e+00  9.44870580e-01   2.64483137e+00  -6.95826800e-02
C     4.503894794926345e+00   6.250183376426085e+00   6.199991159727396e+00 -2.09849047e+00  -1.38222143e+00   4.90734830e-01
C     6.245100498831654e+00   4.423583409660228e+00   6.250235765500794e+00 -1.54856702e+00   9.24231030e-01  -1.20567617e+00
