64
Lattice="7.10842262195238 0 0 0 7.10842262195238 0 0 0 7.10842262195238 " PBC="1 1 1" Properties=species:S:1:pos:R:3:force:R:3 Energy="-512.0442274"
C     5.084121568389500e-02   7.093874877687039e+00   1.926311445793800e-02 -1.54049066e+00   6.41790070e-01  -7.68617660e-01
C     1.757919453674810e+00   1.742467377836133e+00   1.286979915351000e-03  3.84014690e-01   6.46178360e-01  -6.19561940e-01
C     1.285060641243600e-03   1.749164862544471e+00   1.819241398753859e+00 -4.05747240e-01   3.81737450e-01  -2.08641217e+00
C     1.791779856151371e+00   5.940508783534000e-04   1.784946529486765e+00  6.57769600e-02  -8.76537930e-01   8.60037800e-01
C     9.050024993691682e-01   8.532580875071759e-01   8.934113632765438e-01 -3.77044400e-02   7.80272830e-01   7.61614580e-01
C     2.656306286279997e+00   2.656784398785418e+00   8.642462161089458e-01  5.42867000e-02   4.57446720e-01   1.90946140e-01
C     8.851215208170998e-01   2.654611993748520e+00   2.626935208109098e+00  6.06310740e-01   1.86167160e-01   1.87688513e+00
C     2.704041334531631e+00   8.395980450110005e-01   2.679622410063180e+00 -1.14056866e+00   2.52501818e+00  -1.80178967e+00
C     3.563567273683991e+00   6.101208893704340e-02   7.024904056616191e+00 -3.45936910e-01  -1.63774622e+00   1.95461480e+00
C     5.296773727446562e+00   1.754232314861816e+00   7.052873353846427e+00  2.30997086e+00   1.45213156e+00   7.58180630e-01
C     3.578759536675908e+00   1.780338992112933e+00   1.717082418733625e+00 -6.92171040e-01  -6.02782740e-01   1.57840433e+00
C     5.379427124713291e+00   1.574842597770520e-02   1.710683985364910e+00 -1.95839817e+00  -2.16689300e-01   2.52220789e+00
C     4.482159939754981e+00   8.809237129230850e-01   7.991209805912918e-01 -1.03176077e+00   4.99093220e-01   1.69975163e+00
C     6.177968768861053e+00   2.666979014170117e+00   8.898265857492778e-01 -5.00475210e-01  -1.93788938e+00   1.14447989e+00
C     4.389768501088436e+00   2.697654914397144e+00   2.677157706688148e+00  8.30358580e-01  -8.57895650e-01  -4.90388800e-02
C     6.231678730661701e+00   8.664779053904947e-01   2.679381292367910e+00 -9.11460700e-01   1.13232061e+00  -9.58101970e-01
C     7.066888177715566e+00   3.485555960725028e+00   3.115913079673420e-02  8.09861900e-01   1.73801758e+00  -7.28289800e-02
C     1.738270636205511e+00   5.359416701785312e+00   7.103081422327558e+00  7.77854600e-01  -1.07173322e+00   8.25266850e-01
C     5.335297681667200e-03   5.277231038726980e+00   1.813055720474162e+00 -2.59467780e-01   6.79830640e-01   2.30699400e-02
C     1.762364563591775e+00   3.550784552707576e+00   1.774598514341926e+00 -8.35368300e-02  -3.32037540e-01  -5.75459250e-01
C     8.260633240056158e-01   4.392360942817949e+00   8.952331809098236e-01  2.19053064e+00   1.28887925e+00  -1.31005150e-01
C     2.674127172872563e+00   6.256292425909940e+00   9.048640983807567e-01 -3.85589560e-01  -7.55565290e-01  -1.42332125e+00
C     9.044693676726681e-01   6.182345566836639e+00   2.726569489667387e+00  1.65333590e-01   4.80286900e-01  -1.70720685e+00
C     2.623181250123475e+00   4.443495025513788e+00   2.667985069223526e+00  1.97620673e+00  -6.96446960e-01   4.48189820e-01
C     3.545829413467627e+00   3.588954436397512e+00   7.083902400509214e+00 -1.96784820e-01  -6.90152970e-01   6.33317840e-01
C     5.346239392269261e+00   5.414009032085781e+00   7.079912585061061e+00 -6.18910500e-02  -2.68071105e+00   1.95456096e+00
C     3.551103365462084e+00   5.337771199486281e+00   1.786147852909544e+00 -5.29382320e-01   1.37065980e-01  -6.82348090e-01
C     5.255157396133546e+00   3.543501262891124e+00   1.812203633854702e+00  2.61862445e+00   1.09560020e+00  -1.65047283e+00
C     4.434742211489104e+00   4.473051704599295e+00   8.478099791585294e-01 -1.51858090e-01   1.53713300e-01   1.71802270e+00
C     6.243100970632874e+00   6.216882691146624e+00   9.430993795587961e-01  3.50254110e-01  -2.30590250e-01  -2.30566050e+00
C     4.413193596990383e+00   6.222717071180441e+00   2.675763034170104e+00  2.25249545e+00  -3.98723590e-01  -1.40489075e+00
C     6.252798209686852e+00   4.388172944547151e+00   2.698711936840738e+00 -2.34109423e+00   1.21132446e+00  -2.18989210e-01
C     6.291309439831000e-03   6.240555302324200e-03   3.557869801869836e+00  4.01963410e-01   3.94107800e-02  -7.08082300e-02
C     1.817114061116372e+00   1.815711498249220e+00   3.509519377471988e+00 -4.19775440e-01  -9.11454410e-01   1.58931264e+00
C     7.076195519788837e+00   1.846095384475017e+00   5.346689781926464e+00  1.51823792e+00  -2.71288226e+00  -1.57122092e+00
C     1.764497161462001e+00   7.083030552474871e+00   5.302587990644365e+00 -1.10626970e-01   2.26713551e+00  -1.37823440e-01
C     8.702398958936773e-01   9.850978596718635e-01   4.400558731204464e+00  7.23511170e-01  -2.87047273e+00   7.83814320e-01
C     2.683487046188996e+00   2.675407968460235e+00   4.518076098053244e+00 -5.85504020e-01   8.48045000e-01  -2.63521687e+00
C     8.582424423640937e-01   2.604356725341192e+00   6.226810811767299e+00  6.56056010e-01   2.86410834e+00   1.14848056e+00
C     2.646268624866747e+00   9.186469744198058e-01   6.157641097031544e+00  1.21050050e-01  -1.49462684e+00   1.69268117e+00
C     3.565823984613163e+00   7.100563619035554e+00   3.529368297038041e+00 -2.97929360e-01  -5.21849190e-01   9.39449690e-01
C     5.286554943424955e+00   1.811997063093365e+00   3.546947639429979e+00  1.55179826e+00  -1.57766583e+00  -2.54696870e-01
C     3.545378170799709e+00   1.788522279317303e+00   5.347742397148034e+00  4.99268150e-01  -5.46275810e-01  -1.38929355e+00
C     5.387556245737296e+00   7.063798288571104e+00   5.292455573957591e+00 -7.77566690e-01   2.33872766e+00  -5.77120700e-01
C     4.455413433383838e+00   8.618060367919522e-01   4.360486989042548e+00 -8.64903900e-02   9.92362740e-01   3.01617622e+00
C     6.204876636425670e+00   2.657452164006341e+00   4.477185181268600e+00 -9.05434390e-01   1.05394896e+00  -1.22814931e+00
C     4.435023349603725e+00   2.668345395166134e+00   6.224407454079476e+00 -2.14763240e-01   3.37336180e-01  -9.70356320e-01
C     6.272569576362121e+00   9.352718689065570e-01   6.172505093066868e+00 -2.06599461e+00  -2.70205590e+00   1.57047062e+00
C     7.095078831226188e+00   3.509699433816953e+00   3.605873975001862e+00  7.50596590e-01   6.46045670e-01  -1.53088993e+00
C     1.794860504346426e+00   5.260191012359221e+00   3.589578911324679e+00 -8.04476670e-01   2.35012592e+00  -2.19496430e-01
C     1.788344071162220e-02   5.323648398677544e+00   5.332655409895120e+00 -5.57168610e-01  -8.13611070e-01   2.91226650e-01
C     1.751635821331409e+00   3.557359772546850e+00   5.364061060788315e+00  6.37814150e-01  -6.01944290e-01   3.77721040e-01
C     8.850590377822699e-01   4.412765030190624e+00   4.470126659775392e+00  1.50845600e-01  -2.59784510e-01   3.43293500e-02
C     2.683419658342558e+00   6.213469937446762e+00   4.461335460268559e+00 -5.81599590e-01  -3.57190160e-01  -8.12038850e-01
C     8.691882047670483e-01   6.217854625771456e+00   6.200188063033970e+00  9.35692270e-01   3.13201920e-01   3.92828680e-01
C     2.647320529246055e+00   4.481145852184011e+00   6.232245414112968e+00 -2.74161820e-01  -6.06119070e-01   2.08299680e-01
C     3.579238999781627e+00   3.586969906970460e+00   3.629886866370258e+00 -1.70038878e+00  -5.02516990e-01  -1.67754344e+00
C     5.365899867551657e+00   5.365320744360806e+00   3.562227691441252e+00 -1.09043936e+00  -1.91221014e+00  -5.73714600e-01
C     3.548000681156906e+00   5.362897340921196e+00   5.372170207144759e+00  6.84528780e-01  -5.10046360e-01  -1.02222798e+00
C     5.334964367730548e+00   3.559263123787581e+00   5.323039562280141e+00 -9.59673700e-02   3.72628140e-01   1.98660377e+00
C     4.463975315176949e+00   4.468973389289523e+00   4.495249744588580e+00 -1.12537270e-01   4.46012610e-01  -1.12281818e+00
C     6.257895375210749e+00   6.190415048194863e+00   4.398908155472101e+00 -1.32458240e-01   1.00080437e+00   2.10409477e+00
C     4.457005293545360e+00   6.263622773484136e+00   6.187130956944423e+00  2.61848190e-01  -3.56235530e-01   3.75510400e-01
C     6.238877643501653e+00   4.427319525505073e+00   6.298334978243251e+00 -9.05081260e-01   8.77046800e-01  -3.18786690e+00
