64
Lattice="7.10842262195238 0 0 0 7.10842262195238 0 0 0 7.10842262195238 " PBC="1 1 1" Properties=species:S:1:pos:R:3:force:R:3 Energy="-510.97495303"
C     1.238194810909940e-02   6.991376470486699e+00   7.087677399425792e+00 -1.86887501e+00   2.96381009e+00  -1.35716200e-01
C     1.761547094990475e+00   1.793206658739657e+00   1.339553809048520e-02 -8.53955480e-01  -2.64471390e-01  -5.44715510e-01
C     7.094312898688883e+00   1.706975308031378e+00   1.754657682871397e+00  9.96192900e-01   1.34464963e+00  -1.15768347e+00
C     1.786440648837263e+00   7.062775102219182e+00   1.738680365685328e+00  5.11198680e-01   2.04512100e+00   7.21642130e-01
C     8.373542003267714e-01   8.257900051558769e-01   8.110419474934841e-01  2.35052014e+00   7.23601670e-01   2.22623435e+00
C     2.623201153706812e+00   2.680695710794574e+00   9.315947529694572e-01  1.88589950e-01  -1.21454458e+00  -1.06381890e+00
C     8.153564046026932e-01   2.623261006625272e+00   2.661148614852967e+00  3.12467051e+00   2.89408950e-01  -2.98092280e-01
C     2.720235600776062e+00   8.925589212359535e-01   2.622113422877499e+00 -1.57189446e+00  -1.68016930e-01   7.72536410e-01
C     3.587611442111915e+00   4.404129860560300e-02   6.302206651707459e-02 -1.58732587e+00  -4.82321510e-01  -1.81082842e+00
C     5.317366116934440e+00   1.867895921471390e+00   7.072015056446014e+00  1.53996006e+00  -2.60914099e+00   1.55623454e+00
C     3.555800753297832e+00   1.838357368863563e+00   1.740745504624890e+00 -1.06422740e-01  -2.02764052e+00   1.76033258e+00
C     5.317739380206216e+00   1.634816359415460e-02   1.682941802237384e+00  5.54424240e-01  -7.16295540e-01   2.75231568e+00
C     4.443193486226248e+00   9.473636512043079e-01   8.760602723349333e-01  8.02896270e-01   3.90932910e-01  -4.59894510e-01
C     6.282703770154550e+00   2.681798724732520e+00   8.900589600847255e-01 -2.41870751e+00  -7.66495180e-01   3.79286150e-01
C     4.425347080396477e+00   2.649376995910021e+00   2.696494108983298e+00  6.99917910e-01   1.60448621e+00  -1.44272832e+00
C     6.260027262238713e+00   8.557920980027536e-01   2.609609636404693e+00 -2.73687044e+00  -1.03030230e-01   4.79926580e-01
C     7.093513201144133e+00   3.592004162954171e+00   5.024019855137400e-03  1.36475321e+00  -5.39162500e-02   6.88005550e-01
C     1.872695030834830e+00   5.372483972919206e+00   6.281357648163000e-03 -1.59808918e+00  -1.56160811e+00  -2.48203400e-02
C     3.725353692999120e-02   5.381507973266843e+00   1.803171529905278e+00 -1.45796530e+00  -2.37244175e+00  -1.23976199e+00
C     1.764560710760224e+00   3.521152097836940e+00   1.801252966640140e+00 -1.40432514e+00   2.39331019e+00   4.69503430e-01
C     9.120040823971897e-01   4.513752186741951e+00   8.860650928356786e-01  1.27074410e-01  -1.66400959e+00   2.60605650e-01
C     2.739520253754539e+00   6.226172901921379e+00   9.290357919104834e-01 -1.78798871e+00   3.10675900e-01  -1.21108846e+00
C     9.040587140979108e-01   6.213533202408080e+00   2.630952390984338e+00  6.28627100e-01   1.11210166e+00   1.43262800e+00
C     2.621511979239621e+00   4.488566832146613e+00   2.739275866184863e+00  1.45900827e+00  -2.30563361e+00  -2.62697354e+00
C     3.497752663340650e+00   3.492722743494738e+00   3.568349962591180e-02  1.79465063e+00   1.54963925e+00  -5.52816760e-01
C     5.263165887225691e+00   5.272073380526586e+00   4.505453316585779e-02  9.37729200e-01   4.17088400e-01  -1.07967463e+00
C     3.544271033976644e+00   5.329130414202088e+00   1.806438560941430e+00 -8.72460000e-03  -1.99985461e+00  -2.54648470e-01
C     5.383043463636990e+00   3.500798835685999e+00   1.834627295177945e+00 -1.06338216e+00   2.13430348e+00  -1.27946308e+00
C     4.396354099224735e+00   4.343135613764033e+00   9.160239664730258e-01  1.25034773e+00   1.90846031e+00   8.96645590e-01
C     6.171467192280122e+00   6.169653478248629e+00   9.000761492408296e-01  1.19685213e+00   5.80479620e-01  -1.16152705e+00
C     4.433382583494576e+00   6.165415223429907e+00   2.620653921545161e+00  1.70862894e+00   2.98962355e+00   1.06127088e+00
C     6.287691323801646e+00   4.475924076011585e+00   2.688857246225727e+00 -1.94301132e+00  -1.34968880e+00   1.75444250e-01
C     2.283225345544000e-04   7.066864151247111e+00   3.506982665775815e+00  1.46645170e-01   1.03039787e+00   1.76737985e+00
C     1.771271843639992e+00   1.748884222019433e+00   3.549365782636851e+00  1.16078700e-02   3.22499830e-01  -1.68006421e+00
C     7.093941839028119e+00   1.755470033408411e+00   5.357220199195732e+00  1.30143989e+00   5.73336690e-01  -9.34824250e-01
C     1.816623722124044e+00   8.753951372303800e-03   5.341676282536804e+00 -9.43509560e-01   2.59334640e-01  -3.60038290e-01
C     9.166522088641814e-01   8.692401673364006e-01   4.394425939589059e+00 -9.42461640e-01  -4.51811780e-01   2.12700153e+00
C     2.606367271595032e+00   2.662988061374345e+00   4.388961979457970e+00  1.03393779e+00   1.30466480e-01   2.99424921e+00
C     8.608881261790315e-01   2.734661433641090e+00   6.225213975709942e+00  6.07108380e-01  -2.76542590e+00   3.07431920e-01
C     2.685246665124351e+00   9.243529052568797e-01   6.249379769248894e+00 -7.96332320e-01  -4.85333150e-01  -3.22855020e-01
C     3.653114419207596e+00   2.715808404084100e-02   3.536064999819890e+00 -3.64173847e+00  -1.76832387e+00  -9.40223120e-01
C     5.344311659138943e+00   1.798317756771890e+00   3.459662962657868e+00  1.16671343e+00  -1.82300137e+00   3.80068228e+00
C     3.529391115074651e+00   1.795159342433371e+00   5.336698538512923e+00  7.45931310e-01  -1.82837000e-01  -1.16198796e+00
C     5.276899075390626e+00   3.366435218070080e-02   5.339653651964510e+00  1.50571684e+00  -1.31304847e+00   6.05751240e-01
C     4.453653174690447e+00   8.736162544697250e-01   4.398892161521205e+00  9.26427680e-01   2.22586269e+00   1.30451580e+00
C     6.327028979159595e+00   2.686834899990337e+00   4.452940199901660e+00 -4.97364497e+00  -8.52305290e-01  -5.87188200e-01
C     4.437943773952925e+00   2.700487691895440e+00   6.222127427524112e+00 -9.31536270e-01  -6.11225540e-01  -1.48192711e+00
C     6.196130291065569e+00   8.911134945804025e-01   6.245286881672751e+00  5.31301000e-02  -4.36481770e-01  -1.34002433e+00
C     3.473182400554620e-02   3.555762936489494e+00   3.576945467223284e+00 -1.60182780e-01   5.30233870e-01  -8.10408760e-01
C     1.808721501950069e+00   5.387605791442958e+00   3.550560353058142e+00 -2.03470148e+00  -8.64681580e-01   1.57166155e+00
C     7.097087671458600e+00   5.298478540443517e+00   5.348568609109157e+00  1.58491640e-01   9.75052950e-01   5.87231200e-02
C     1.732369863504423e+00   3.557859281404358e+00   5.333855951391411e+00  1.53072830e+00   6.37533390e-01  -1.03178800e-01
C     8.781207197155666e-01   4.463460167789677e+00   4.449215670785685e+00  1.07038390e+00   3.16577700e-02  -7.10180400e-02
C     2.676766885612500e+00   6.230414284446056e+00   4.474904941460556e+00  7.61797800e-01   7.24607670e-01  -1.22653781e+00
C     9.324191878249247e-01   6.206518610966663e+00   6.208031212215974e+00 -2.16901350e-01  -5.09970660e-01  -1.54737260e-01
C     2.713320242914421e+00   4.401348192620641e+00   6.268571088638370e+00 -1.89112513e+00   1.38692788e+00  -2.15120404e+00
C     3.513990077710385e+00   3.557878047640075e+00   3.582223399934407e+00  3.65171830e-01   5.01570900e-01  -9.66434740e-01
C     5.313223967989540e+00   5.346496219578522e+00   3.542665738896369e+00  1.13891637e+00  -6.10263250e-01  -1.90519520e-01
C     3.566118984151893e+00   5.339201271948973e+00   5.323271865531362e+00 -1.09781076e+00  -5.17419100e-01   1.07081492e+00
C     5.306849632173507e+00   3.579755497769196e+00   5.298575783664959e+00  1.07005146e+00  -2.54042440e-01   6.45379130e-01
C     4.406748176948151e+00   4.487013926141048e+00   4.392331940453660e+00  1.30192352e+00  -1.62733833e+00   1.88075456e+00
C     6.186852733283076e+00   6.199510630358284e+00   4.493356345139516e+00  3.48377900e-01   9.52029810e-01  -1.53666199e+00
C     4.360099508925532e+00   6.225087659039985e+00   6.257970866658973e+00  3.00948738e+00   1.17113800e-01  -5.44556410e-01
C     6.209545377318260e+00   4.411502858670216e+00   6.247344485684335e+00 -1.43782109e+00   1.57372638e+00  -8.61721450e-01
