64
Lattice="7.10842262195238 0 0 0 7.10842262195238 0 0 0 7.10842262195238 " PBC="1 1 1" Properties=species:S:1:pos:R:3:force:R:3 Energy="-509.48707054"
C     5.988966900534539e-02   1.251949608679640e-02   7.063743198295800e+00 -1.46788324e+00  -1.44371615e+00   5.84447800e-01
C     1.748747811389355e+00   1.770790958849749e+00   1.057591117403600e-02  8.64363500e-01   7.80689960e-01   4.87531610e-01
C     7.093773582664704e+00   1.727984961927050e+00   1.678843796596954e+00  1.74698300e-01   9.54099690e-01   2.14598668e+00
C     1.761377701279440e+00   7.099067082821366e+00   1.789338539486758e+00  1.20443680e+00  -6.82526270e-01   9.99350790e-01
C     9.132098130419939e-01   8.525767451990490e-01   8.789661244177632e-01 -4.06179090e-01   2.95771780e-01  -6.90064860e-01
C     2.587528956472865e+00   2.669439097070447e+00   9.686970937503210e-01  2.22064588e+00   1.12162680e-01  -1.46911325e+00
C     7.767908661097286e-01   2.652715964183087e+00   2.657470859157832e+00  2.19802831e+00   1.37230900e+00  -1.10486713e+00
C     2.668309142210772e+00   8.673454172870396e-01   2.687946230782748e+00  1.82089880e-01   1.14249359e+00  -1.17975694e+00
C     3.500007952585297e+00   4.831303409486580e-02   8.381256774337199e-02  1.90077164e+00  -1.15216898e+00  -3.00801621e+00
C     5.342445840369646e+00   1.781228469035373e+00   7.030119435208259e+00 -1.33720416e+00  -5.22239020e-01   2.10972780e-01
C     3.578124256946358e+00   1.752488263371999e+00   1.844085406894986e+00 -1.02665698e+00   1.59710211e+00  -2.14715739e+00
C     5.290453344558215e+00   6.907104982978979e-02   1.720355420844778e+00  2.25920110e+00  -1.75116762e+00   6.01955740e-01
C     4.434088876366100e+00   9.550863126229021e-01   8.280802678398146e-01 -1.70922410e-01  -1.32217839e+00   2.20545358e+00
C     6.205851130082645e+00   2.607605345562757e+00   8.074183579787130e-01  2.38906321e+00   1.85468989e+00   7.62127530e-01
C     4.500323096896700e+00   2.645346093779124e+00   2.670133163455064e+00 -3.12257680e-01  -4.69409930e-01   1.37747872e+00
C     6.242983752743870e+00   8.932364960800917e-01   2.609666717038332e+00 -1.47778183e+00  -6.89975830e-01   1.85230568e+00
C     3.239613850106660e-02   3.591043459637077e+00   7.074760116009180e+00 -1.08453209e+00   1.68304490e-01   1.12688043e+00
C     1.815867528125729e+00   5.329286941668181e+00   8.448147031191400e-03  1.25589395e+00   1.33944151e+00  -7.41520140e-01
C     7.071840971176051e+00   5.351899331611984e+00   1.794516172354714e+00  1.23956950e+00   4.95588520e-01  -4.86135270e-01
C     1.710835465850943e+00   3.602193589190357e+00   1.831857356135610e+00  1.36997715e+00  -3.16087090e-01  -1.49241162e+00
C     9.453928410329130e-01   4.559229102379890e+00   8.672911089382227e-01 -3.24357181e+00  -4.05724405e+00   2.00915933e+00
C     2.719433486367621e+00   6.198644966651621e+00   9.513343449956139e-01 -1.76634220e+00   9.91976500e-01  -5.99412700e-01
C     8.967274424287737e-01   6.214733530651692e+00   2.717077968364032e+00 -2.50364607e+00   4.53102260e-01  -1.90288527e+00
C     2.655558266967694e+00   4.478170479727957e+00   2.724135565762299e+00 -5.31873300e-01  -2.02612059e+00  -1.04186590e+00
C     3.567033127300825e+00   3.538893299011936e+00   7.103386018236825e+00 -3.22320000e-01  -6.65041680e-01   1.22751784e+00
C     5.281785262931161e+00   5.315648579860996e+00   7.088996722664064e+00  1.63338993e+00   4.56875300e-02   1.51092174e+00
C     3.587500337466365e+00   5.314940012294234e+00   1.865923973952376e+00  6.31324730e-01  -2.06848090e-01  -2.02773890e+00
C     5.447330331790841e+00   3.455796904847529e+00   1.752696469070539e+00 -3.77296362e+00   2.58351423e+00   1.40135127e+00
C     4.514155092136053e+00   4.373817769402964e+00   9.399757254068896e-01 -1.87305258e+00   7.14046640e-01  -1.51642049e+00
C     6.211393780452138e+00   6.235413851327380e+00   8.807094650653182e-01 -3.02360630e-01   4.04447500e-01  -1.01310864e+00
C     4.523720398866203e+00   6.238979507197798e+00   2.651895225707382e+00 -1.48159115e+00   2.09155030e-01   4.69860340e-01
C     6.193933361970632e+00   4.448555724829645e+00   2.692642694523556e+00  2.76283645e+00  -1.83064315e+00  -7.29639520e-01
C     7.066900262034020e+00   3.096926482855400e-03   3.585533294758958e+00  1.21302701e+00  -4.38692560e-01  -2.20974205e+00
C     1.716487159423426e+00   1.848013094729441e+00   3.478126734992187e+00  1.70064100e+00  -3.39831690e+00   2.20803411e+00
C     4.788517813736800e-02   1.805988953210715e+00   5.344381108427941e+00 -1.26157766e+00  -2.21753369e+00   2.18473560e-01
C     1.829438146665345e+00   7.088954711886379e+00   5.235144414173424e+00 -4.68063600e-01   6.59987700e-01   1.63597405e+00
C     8.805427725548791e-01   8.401778079598878e-01   4.361656537816216e+00  8.84636160e-01   3.28236204e+00   2.67825934e+00
C     2.624420959028404e+00   2.701273172594950e+00   4.467350536405378e+00 -2.04955730e-01  -1.13026010e-01  -2.76780535e+00
C     8.576914685268175e-01   2.692419418969062e+00   6.237717406761617e+00  2.33400481e+00  -9.95388420e-01  -5.58060840e-01
C     2.706416400697425e+00   9.341401369412269e-01   6.236912946573712e+00 -3.55522114e+00  -9.33869220e-01  -3.76090190e-01
C     3.591225648508828e+00   7.074704741396970e+00   3.514204609905057e+00 -1.13400483e+00   1.04179072e+00   1.37860600e+00
C     5.405215557883710e+00   1.739696230361952e+00   3.623744833805447e+00 -2.53962630e+00   7.08717180e-01  -1.00800563e+00
C     3.462985581558908e+00   1.847591778520753e+00   5.313316306399374e+00  2.44770235e+00  -3.53698542e+00   6.75743420e-01
C     5.296091461043495e+00   7.079936469361064e+00   5.353117573080600e+00 -7.13061800e-02   9.48029940e-01   1.46479049e+00
C     4.351979842103611e+00   8.507246456854080e-01   4.548225335248356e+00  2.68362419e+00   7.01854160e-01  -4.25371563e+00
C     6.237387433783597e+00   2.641622133336958e+00   4.557292910226654e+00 -3.68558540e-01   5.02581830e-01  -3.84177662e+00
C     4.432424154872722e+00   2.605574540304450e+00   6.119153466850494e+00 -2.43476560e-01   3.43886475e+00   3.35509334e+00
C     6.233831089946811e+00   9.036189159904114e-01   6.204589811572952e+00  6.52851940e-01  -1.44292958e+00  -1.80621480e-01
C     7.098543760748081e+00   3.512365803141715e+00   3.617931352534132e+00 -2.13209692e+00   7.41289430e-01  -1.58202513e+00
C     1.682202526284904e+00   5.302347441622905e+00   3.553451206369243e+00  3.59509133e+00   3.51091940e-01   6.90338870e-01
C     7.102484812417061e+00   5.354983889439480e+00   5.307883125738229e+00  5.16217390e-01  -1.32782821e+00   1.63041881e+00
C     1.750086327368701e+00   3.543922365847133e+00   5.318164179541988e+00  3.02199480e-01   1.71576926e+00   1.45905599e+00
C     8.187662438492810e-01   4.419330156069777e+00   4.438341490198515e+00  2.13457518e+00   5.19162420e-01   5.55195570e-01
C     2.695148484581332e+00   6.198665083487635e+00   4.334740708818265e+00 -1.10495111e+00  -1.55039900e-01   3.13155353e+00
C     9.537662785423683e-01   6.186574083116372e+00   6.178839977137359e+00 -5.77360030e-01   1.62008558e+00   7.61548000e-03
C     2.688005372858946e+00   4.440439043545224e+00   6.239163899680561e+00 -1.32929160e-01  -2.15404200e-02  -1.22168807e+00
C     3.584732886371946e+00   3.560911566993159e+00   3.556841995043210e+00 -8.36803360e-01   6.45102400e-01   1.09882210e-01
C     5.403600239927542e+00   5.348133857981717e+00   3.582970424067543e+00 -2.15066359e+00   9.15680000e-02  -1.29294816e+00
C     3.588521178038823e+00   5.385386755153672e+00   5.310492272260900e+00 -2.53648971e+00  -2.69168529e+00  -6.90331140e-01
C     5.316942810367419e+00   3.538005954616281e+00   5.336698822849828e+00  5.23035480e-01   1.01147802e+00  -5.64821570e-01
C     4.454877173981385e+00   4.484765816403246e+00   4.401585685020375e+00  7.80343880e-01  -1.15337137e+00   1.92371089e+00
C     6.234702511475797e+00   6.234074908842677e+00   4.493755980659213e+00 -1.21438528e+00   2.25170480e-01  -1.47456770e+00
C     4.352751674631690e+00   6.196273170360231e+00   6.244385604768761e+00  2.99438408e+00   1.73662960e+00   7.82326270e-01
C     6.233081435697305e+00   4.453748356469329e+00   6.207331601261712e+00 -1.43540640e+00   1.28465230e-01   2.80843260e-01
