64
Lattice="7.10842262195238 0 0 0 7.10842262195238 0 0 0 7.10842262195238 " PBC="1 1 1" Properties=species:S:1:pos:R:3:force:R:3 Energy="-509.58544246"
C     1.986676170682840e-02   7.091845209776350e+00   7.095498583581899e+00 -1.81830040e-01   7.03783260e-01   4.78301450e-01
C     1.825839010124386e+00   1.777949638017673e+00   8.996547619479159e-02 -2.37822372e+00  -1.00482731e+00  -3.68210876e+00
C     7.094423292492172e+00   1.784225664348870e+00   1.765263733757342e+00  3.26654630e-01   3.03714620e-01   4.41619430e-01
C     1.686751916761704e+00   6.667920778661220e-02   1.818904388437445e+00  2.93902708e+00  -2.81523796e+00   3.09500060e-01
C     8.702281669963543e-01   8.897555726073040e-01   8.899412446061383e-01  1.88290300e-01   4.24561000e-01   9.04060650e-01
C     2.645604342772908e+00   2.682495421233506e+00   8.953251638985263e-01  1.48928391e+00  -2.87159080e-01   1.27253696e+00
C     8.773285570987938e-01   2.698113834161491e+00   2.680153267064442e+00 -1.34437480e-01  -1.33448819e+00  -3.05980460e-01
C     2.651827695692492e+00   8.983362917203582e-01   2.735838943848093e+00  2.20297670e-01   1.06031739e+00  -2.57559207e+00
C     3.455322133300739e+00   7.064428236983688e+00   3.185575621349420e-02  2.78853282e+00   1.10860528e+00  -1.46315536e+00
C     5.320794082658709e+00   1.709595046103753e+00   1.973440287764400e-03  1.85500700e-02   3.33270140e+00  -3.93042320e-01
C     3.574677098481016e+00   1.770039740747267e+00   1.828763770611385e+00 -5.88247200e-01   1.20225879e+00  -1.08875157e+00
C     5.330437297700775e+00   7.889076700551020e-02   1.810591301436034e+00  4.19954690e-01  -2.59065857e+00  -3.99615250e-01
C     4.445890350684050e+00   9.269756288667550e-01   9.584573398819847e-01 -1.22180658e+00  -1.99358092e+00  -2.35788100e+00
C     6.216415099106680e+00   2.649683582177622e+00   8.456019609243050e-01  7.70667450e-01   2.77123430e-01   5.28330930e-01
C     4.499131867434040e+00   2.691168265503715e+00   2.631119794337039e+00 -1.09875667e+00  -1.47364095e+00   1.72900296e+00
C     6.222190834653882e+00   9.083247628490776e-01   2.709744066578526e+00  3.62855930e-01   5.13351220e-01  -2.16291840e-01
C     8.712843364292340e-02   3.599372540589384e+00   7.000018961792321e+00 -2.58439823e+00  -1.86442244e+00   4.50709903e+00
C     1.779507946424429e+00   5.306093011669835e+00   7.100580679249842e+00  5.88047480e-01   4.96476350e-01   9.61681840e-01
C     7.007174797591197e+00   5.309781145661995e+00   1.700217046309639e+00  2.82939807e+00   2.12614159e+00   2.28687457e+00
C     1.760486376167119e+00   3.569181648037720e+00   1.811544754162055e+00 -4.23874390e-01   5.59232640e-01  -1.76187991e+00
C     8.613437760689735e-01   4.510166698372423e+00   9.209933936424415e-01  1.27727992e+00  -2.79115766e+00  -2.53455252e+00
C     2.653688183144825e+00   6.174910156776119e+00   8.934158415827944e-01 -2.06930850e-01   4.70808920e-01   9.95471510e-01
C     8.521123519492844e-01   6.281413733617471e+00   2.713486082414146e+00 -1.17478069e+00  -1.55787417e+00  -1.65988282e+00
C     2.661535526296174e+00   4.430861083822809e+00   2.632396182702686e+00  8.74222540e-01  -5.18075440e-01   7.57047600e-01
C     3.522685313511847e+00   3.534628956282198e+00   7.049171642767061e+00  2.24803950e+00  -5.44925000e-03   2.07587859e+00
C     5.303641885382007e+00   5.391943422009908e+00   4.907086303038400e-03  4.22950720e-01  -3.54323521e+00  -1.34496899e+00
C     3.649089132730569e+00   5.232219795854878e+00   1.766617035255738e+00 -2.93195707e+00   3.77375804e+00   2.91319780e-01
C     5.348481388763609e+00   3.529981753910147e+00   1.766841590326303e+00  1.07625346e+00   5.95603790e-01  -2.03773971e+00
C     4.529778836381003e+00   4.414433163726859e+00   8.547949284776200e-01 -3.08446747e+00   2.41975000e-03   3.45214810e-01
C     6.186503709732434e+00   6.207752633133495e+00   8.416891296931259e-01  3.68074220e-01   2.67174456e+00   1.26318044e+00
C     4.483008756500034e+00   6.265071683266770e+00   2.679593336614665e+00 -1.00775353e+00  -9.49753460e-01  -3.77983500e-01
C     6.222395841562244e+00   4.452798102533487e+00   2.587545945602927e+00 -1.26426249e+00  -1.40843857e+00   3.48408085e+00
C     7.072552382111860e+00   1.583642824974080e-02   3.643110949307149e+00  4.52909980e-01   4.48390180e-01  -2.43625381e+00
C     1.791367638723637e+00   1.837812863690872e+00   3.522389816383534e+00 -8.25848330e-01  -2.32228251e+00   2.22325215e+00
C     9.566394318811459e-02   1.767634677038017e+00   5.350739805714210e+00 -3.19546372e+00  -4.15427640e-01   1.50257460e+00
C     1.746281970666703e+00   7.044349857535463e+00   5.290809618699930e+00  2.00164344e+00   1.43593255e+00   8.53944080e-01
C     8.681034594752364e-01   8.483758095990813e-01   4.500017150387135e+00  1.22547887e+00   1.41036434e+00  -2.19879256e+00
C     2.690272888590500e+00   2.657292153413165e+00   4.429703477199143e+00 -4.88427500e-01   7.90810710e-01  -1.45732946e+00
C     9.358152367316297e-01   2.623674290316399e+00   6.257523320370819e+00  1.07804676e+00   2.15543101e+00  -1.82081685e+00
C     2.622915110780583e+00   8.622994324060064e-01   6.162194894730368e+00  8.35116740e-01   6.88002600e-02   2.91696945e+00
C     3.561969300279015e+00   5.239390843678160e-02   3.580039052747508e+00  3.29368270e-01  -1.31134348e+00  -1.01772375e+00
C     5.374165825711097e+00   1.822666165687949e+00   3.597646686661474e+00 -1.45893123e+00  -1.88276291e+00  -2.17560080e-01
C     3.513368019646909e+00   1.779081938656812e+00   5.318013765319349e+00  7.04479760e-01  -2.29932960e-01   4.46747780e-01
C     5.272368166812638e+00   7.085254351407312e+00   5.417772515357714e+00  1.98062119e+00   1.85283797e+00  -2.83131868e+00
C     4.437399126611782e+00   9.329223219779684e-01   4.508919170202613e+00  7.06324400e-02  -1.39884935e+00  -1.62836198e+00
C     6.225126471027490e+00   2.604597487615331e+00   4.525565603209904e+00  1.57980698e+00   2.55874630e+00  -1.98396860e+00
C     4.394736933078685e+00   2.667499066368996e+00   6.167831447362671e+00  1.36406812e+00  -7.74013330e-01   1.61384544e+00
C     6.252029931370083e+00   9.138416096444596e-01   6.225501866826052e+00 -9.34809830e-01  -2.54182791e+00   7.69593450e-01
C     7.082552582137903e+00   3.481457386410788e+00   3.611743612811874e+00  7.38539400e-01   3.13091321e+00  -2.11790614e+00
C     1.708998222940577e+00   5.310255988293012e+00   3.508234245746519e+00  2.77340678e+00   1.52426609e+00  -5.13810820e-01
C     7.091374276777775e+00   5.367637379292664e+00   5.348294650501382e+00  5.91021940e-01  -1.18754828e+00  -4.38204410e-01
C     1.835101924556282e+00   3.579726282152228e+00   5.268169790244813e+00 -1.36654479e+00  -1.02285820e+00   1.63749903e+00
C     8.645853589521459e-01   4.471876611255984e+00   4.405643812409907e+00  1.00456440e-01  -1.46156131e+00   1.75222398e+00
C     2.709543253639510e+00   6.211722829335217e+00   4.338260799699689e+00 -2.51944486e+00  -7.73558770e-01   2.94481517e+00
C     9.358397607896688e-01   6.211254099947655e+00   6.245620906451665e+00 -1.78203934e+00  -6.43571070e-01  -1.42216657e+00
C     2.693538640110581e+00   4.399247369399527e+00   6.210711727301749e+00 -1.49599764e+00   2.20354579e+00  -1.64869445e+00
C     3.591955541343450e+00   3.498761135257749e+00   3.487056619824336e+00 -7.35927790e-01   2.38835369e+00   2.30058436e+00
C     5.338427235809881e+00   5.357086489766250e+00   3.552589665547699e+00  5.59654390e-01  -3.00516780e-01  -4.71255200e-01
C     3.562955593917541e+00   5.321268569868594e+00   5.246382830335644e+00 -3.91359670e-01  -6.89803370e-01   1.95031828e+00
C     5.372251385331079e+00   3.575681660765674e+00   5.310278664161169e+00 -1.77162335e+00  -1.44209335e+00   1.64990482e+00
C     4.462097625341876e+00   4.432412141638494e+00   4.434929020835558e+00  5.11121710e-01  -4.80077000e-02  -1.87714208e+00
C     6.211432165934286e+00   6.250640305832099e+00   4.456208439369658e+00 -1.21857416e+00  -1.18884737e+00   1.54256559e+00
C     4.391229139768392e+00   6.168171087795454e+00   6.193555051718795e+00  7.50238300e-02   1.74763658e+00   1.60705729e+00
C     6.226636655413109e+00   4.417675528536519e+00   6.241252994004353e+00  2.87452430e-01   2.45526219e+00  -2.05178683e+00
