64
Lattice="7.10842262195238 0 0 0 7.10842262195238 0 0 0 7.10842262195238 " PBC="1 1 1" Properties=species:S:1:pos:R:3:force:R:3 Energy="-511.06535194"
C     7.060757021037364e+00   8.491622143935321e-02   7.106989775252487e+00  9.72623800e-01  -2.48242110e+00  -7.98932260e-01
C     1.726599814695317e+00   1.790220979070805e+00   7.041065126526987e+00  2.33972480e+00  -5.34260510e-01   2.48446377e+00
C     1.067009777375100e-02   1.783601260505930e+00   1.737129307869644e+00 -3.97273450e-01   9.01059030e-01   1.87988656e+00
C     1.750476011096730e+00   1.769990123957380e-02   1.771861416212095e+00  1.42878305e+00   5.33566600e-02  -1.42818974e+00
C     8.782341701405817e-01   9.464096298044777e-01   8.396034474121917e-01 -7.36434110e-01  -1.57955191e+00   1.17849659e+00
C     2.682628561989179e+00   2.663833750413446e+00   9.385681155596772e-01 -3.08099190e-01  -2.86780030e-01  -3.52888102e+00
C     9.122445603344241e-01   2.689101633795403e+00   2.669377822467462e+00 -1.64533697e+00  -1.39718741e+00  -2.76868010e-01
C     2.648771216134345e+00   9.501668576645050e-01   2.656278421263326e+00  8.83292900e-02  -3.20377124e+00   1.21189455e+00
C     3.554579952797073e+00   7.099099355060060e+00   7.089750428714463e+00  8.48290140e-01  -4.75103720e-01   1.07178280e+00
C     5.366191028542172e+00   1.736100719116530e+00   7.099729729978002e+00 -2.40712061e+00   1.20441046e+00   1.73037190e+00
C     3.519281445340261e+00   1.748751507769118e+00   1.788240785781551e+00  2.13431634e+00   1.37711141e+00  -4.58093600e-01
C     5.349859143235817e+00   7.068895240842323e+00   1.838808966952612e+00 -9.65708510e-01   5.17053500e-02  -1.59866663e+00
C     4.457642492549017e+00   7.965669954281519e-01   9.248038635878926e-01 -8.95002030e-01   2.69595631e+00  -4.19559120e-01
C     6.214891053296951e+00   2.674272255778237e+00   9.173882149422563e-01  8.25782550e-01  -5.71765750e-01  -2.46284464e+00
C     4.447677123793813e+00   2.679838506110829e+00   2.677396762940858e+00 -4.46749050e-01  -9.98812010e-01  -6.49641980e-01
C     6.201270036040960e+00   8.775629928768014e-01   2.684810989901971e+00  1.67936447e+00   5.22638980e-01  -1.79665544e+00
C     7.093634470834030e+00   3.551204305063287e+00   7.063593139494291e+00  1.24230930e+00  -1.73094280e-01   1.33122684e+00
C     1.736056504727834e+00   5.257178462852865e+00   8.591452831210600e-03  1.14494295e+00   4.56114701e+00  -1.02112929e+00
C     7.096694504603487e+00   5.270081174003105e+00   1.801047533226422e+00  1.98560985e+00   2.88734144e+00  -1.13215056e+00
C     1.816996558890464e+00   3.532514413805426e+00   1.776125758941833e+00 -9.41750840e-01   6.50234740e-01   8.58260670e-01
C     9.384990927760368e-01   4.453672651768426e+00   8.891237760048384e-01 -2.91036386e+00  -2.53976256e+00   7.53087440e-01
C     2.646719512113534e+00   6.239001756560599e+00   8.192316322782124e-01  1.75061150e-01  -1.26451472e+00   2.81203411e+00
C     9.667861364973863e-01   6.201781771385375e+00   2.677604399965589e+00 -3.75895163e+00   1.02143536e+00  -1.41096242e+00
C     2.652766576152142e+00   4.404383133658250e+00   2.694164678890724e+00  1.36260710e+00   2.47615429e+00  -8.91861130e-01
C     3.563808746800393e+00   3.552542394537276e+00   7.077208825433318e+00  2.72195710e-01  -1.46354510e-01   2.20005353e+00
C     5.371819051067331e+00   5.261146384359349e+00   7.076607452879666e+00 -1.44471897e+00   3.45546460e+00   2.04593810e+00
C     3.567176219848165e+00   5.342965892568525e+00   1.815698845256956e+00 -4.33079500e-01  -2.02100780e-01  -1.30855352e+00
C     5.362536446304778e+00   3.562555318639808e+00   1.747056220058474e+00 -1.17297992e+00  -8.54103380e-01   2.23840730e+00
C     4.475303439632634e+00   4.441963373691856e+00   9.174182124857126e-01 -8.18290750e-01   5.65078300e-02  -1.47823715e+00
C     6.198424818803079e+00   6.247427725313216e+00   8.674403147290165e-01  1.42970139e+00  -1.85416479e+00   1.43469853e+00
C     4.462833844672629e+00   6.211074043602690e+00   2.735381516852496e+00 -9.91327500e-01  -5.79762110e-01  -1.80119696e+00
C     6.244970130360803e+00   4.426225112758498e+00   2.707412006369582e+00 -1.90364116e+00   1.37651215e+00  -3.14459345e+00
C     1.685300376862700e-02   3.348280306698600e-02   3.505229302252366e+00 -1.02723000e-03  -2.48997557e+00   1.60286968e+00
C     1.749575942624585e+00   1.726088505856260e+00   3.599346665931047e+00  7.56973730e-01   3.32453256e+00  -1.73168891e+00
C     7.068259890028547e+00   1.821419703781533e+00   5.288698630434468e+00  1.05801287e+00  -1.06070990e+00  -3.79768650e-01
C     1.792165985668089e+00   1.056020156004580e-02   5.325097308460178e+00 -1.70160798e+00  -5.06850620e-01   6.69678220e-01
C     8.672360897471441e-01   8.606217024992340e-01   4.409556714725313e+00  1.62235000e-01   1.18079281e+00   1.46779469e+00
C     2.620792535786251e+00   2.691467245759113e+00   4.454776163295954e+00  2.22786774e+00  -1.17416235e+00   3.75395960e-01
C     8.833221657992991e-01   2.639314028512244e+00   6.165937976829380e+00 -8.89310010e-01   1.53365072e+00   9.38375550e-01
C     2.673255324838220e+00   8.829200423316859e-01   6.237160248596661e+00  9.61784000e-03   1.22263980e+00  -1.38766126e+00
C     3.577610317990933e+00   2.422088381425700e-02   3.561092334180386e+00 -7.65599460e-01  -6.33634610e-01   9.75906010e-01
C     5.325851654268613e+00   1.739355026076192e+00   3.547142339125541e+00  3.39645090e-01   2.69678078e+00  -7.32766600e-02
C     3.562070168795993e+00   1.836174159024283e+00   5.354550986501923e+00  9.22317700e-02  -2.49115583e+00  -1.04156635e+00
C     5.374192979885506e+00   3.743814266543260e-02   5.290326814635579e+00 -1.34231551e+00  -1.84333001e+00   1.90926339e+00
C     4.498056718512766e+00   8.817611561919472e-01   4.448040719610826e+00 -2.77430814e+00   1.13262851e+00  -1.66238860e-01
C     6.209890633404913e+00   2.738352766423430e+00   4.385375069403918e+00 -4.41629850e-01  -3.03338253e+00   1.78460296e+00
C     4.488464257608205e+00   2.630639122799475e+00   6.219843917841663e+00 -1.43737508e+00   1.38398974e+00   1.03218588e+00
C     6.174572577785895e+00   9.247608576310415e-01   6.194492652662373e+00  2.34874221e+00  -1.63985600e-01  -3.24609710e-01
C     7.050797694441386e+00   3.594293217206263e+00   3.526614067609696e+00  3.95640360e+00  -2.18854601e+00   1.45279888e+00
C     1.771671763496593e+00   5.337801268113964e+00   3.544869278824344e+00  1.09968148e+00  -1.33064923e+00   1.85797831e+00
C     7.076135311449246e+00   5.338904353136135e+00   5.345700787087344e+00  1.34293809e+00   4.85782410e-01  -1.69243525e+00
C     1.782903071236193e+00   3.551252571252877e+00   5.358304517982186e+00 -9.76471950e-01  -7.43992700e-02  -1.76187798e+00
C     9.021017653506248e-01   4.388677429300492e+00   4.442188142015101e+00 -1.46287766e+00   2.95382574e+00   9.04316000e-02
C     2.652831191713758e+00   6.217764633141086e+00   4.502234125233860e+00  7.72000160e-01   5.58166650e-01  -2.43110934e+00
C     8.217052211815200e-01   6.248871161610434e+00   6.200391435005129e+00  1.53715525e+00  -6.50548130e-01   1.26521910e+00
C     2.626917721389452e+00   4.459211037084346e+00   6.217081371558852e+00  1.26784862e+00  -1.26286941e+00   6.18449950e-01
C     3.561041580042879e+00   3.595185821834656e+00   3.575663036698410e+00 -7.51343250e-01  -2.56110294e+00  -2.51417810e-01
C     5.324784040275315e+00   5.274678333079912e+00   3.544635340635919e+00  3.59340280e-01   1.93209745e+00   2.13307757e+00
C     3.513145810355808e+00   5.353570592854171e+00   5.367845300654299e+00  2.07488016e+00  -7.45477990e-01  -4.14814020e-01
C     5.342338858609215e+00   3.540627469794311e+00   5.366531735238349e+00 -2.90352720e-01   4.21277970e-01  -2.07136057e+00
C     4.447166383628566e+00   4.398918747021805e+00   4.464437078310344e+00 -7.54896920e-01   1.98381837e+00   6.67537030e-01
C     6.230856641585698e+00   6.242471804146778e+00   4.442369264623458e+00  1.46525150e-01  -1.15250177e+00  -1.11854095e+00
C     4.497291923323079e+00   6.208543302981518e+00   6.267762434481119e+00 -1.88409361e+00   4.25806900e-02  -2.65212336e+00
C     6.225710001440365e+00   4.460574787963993e+00   6.185986998492186e+00  1.67997210e-01  -1.64986754e+00   1.06099756e+00
